@<TRIPOS>MOLECULE
AlkEthOH_c1266
   15    14     1     0     0
SMALL
USER_CHARGES

@<TRIPOS>ATOM
      1 C1          0.9167    1.4498    0.5861 CT        1 <0>       -0.09697
      2 C2          1.9430    1.3174   -4.0752 CT        1 <0>       -0.09694
      3 C3          1.9101    0.9126   -0.4220 CT        1 <0>        0.12965
      4 C4          2.4157    0.8471   -2.7161 CT        1 <0>        0.12965
      5 O1          1.5170    1.3236   -1.7228 OS        1 <0>       -0.42433
      6 H1          0.8863    2.5427    0.5597 HC        1 <0>        0.04459
      7 H2         -0.0873    1.0632    0.3824 HC        1 <0>        0.04459
      8 H3          1.1823    1.1282    1.5986 HC        1 <0>        0.04459
      9 H4          0.9435    0.9324   -4.2954 HC        1 <0>        0.04459
     10 H5          1.9180    2.4112   -4.1179 HC        1 <0>        0.04459
     11 H6          2.6307    0.9839   -4.8595 HC        1 <0>        0.04459
     12 H7          1.9355   -0.1807   -0.3905 H1        1 <0>        0.02285
     13 H8          2.9125    1.3005   -0.2176 H1        1 <0>        0.02285
     14 H9          3.4159    1.2356   -2.5021 H1        1 <0>        0.02285
     15 H10         2.4394   -0.2460   -2.6749 H1        1 <0>        0.02285
@<TRIPOS>BOND
     1    1    3 1
     2    2    4 1
     3    3    5 1
     4    4    5 1
     5    1    6 1
     6    1    7 1
     7    1    8 1
     8    2    9 1
     9    2   10 1
    10    2   11 1
    11    3   12 1
    12    3   13 1
    13    4   14 1
    14    4   15 1
@<TRIPOS>SUBSTRUCTURE
     1 <0>         1 GROUP 0 A     ****
