@<TRIPOS>MOLECULE
AlkEthOH_c38
    8     7     1     0     0
SMALL
USER_CHARGES

@<TRIPOS>ATOM
      1 C1          0.8151   -0.5383    0.4928 CT        1 <0>       -0.09384
      2 C2          2.1548   -0.0516   -0.0117 CT        1 <0>       -0.09384
      3 H1          0.0001    0.0007    0.0006 HC        1 <0>        0.03128
      4 H2          0.6931   -1.6067    0.2906 HC        1 <0>        0.03128
      5 H3          0.7303   -0.3800    1.5721 HC        1 <0>        0.03128
      6 H4          2.9698   -0.5906    0.4805 HC        1 <0>        0.03128
      7 H5          2.2767    1.0166    0.1908 HC        1 <0>        0.03128
      8 H6          2.2396   -0.2097   -1.0909 HC        1 <0>        0.03128
@<TRIPOS>BOND
     1    1    2 1
     2    1    3 1
     3    1    4 1
     4    1    5 1
     5    2    6 1
     6    2    7 1
     7    2    8 1
@<TRIPOS>SUBSTRUCTURE
     1 <0>         1 GROUP 0 A     ****
