@<TRIPOS>MOLECULE
*****
   10     9     0     0     0
SMALL
NO_CHARGES

@<TRIPOS>ATOM
      1 O1          2.0928    0.2063    0.0000 OH        1 <0>         0.0000
      2 O2          3.5217    1.0312    0.0000 O         1 <0>         0.0000
      3 O3          2.8072   -1.0312    0.0000 O         1 <0>         0.0000
      4 C1          3.5217    0.2063    0.0000 C         1 <0>         0.0000
      5 C2          4.2361   -0.2063    0.0000 CT        1 <0>         0.0000
      6 C3          2.8072   -0.2063    0.0000 C         1 <0>         0.0000
      7 H1          2.0928    0.2063    0.0000 HO        1 <0>         0.0000
      8 H2          4.2361   -0.2063    0.0000 HC        1 <0>         0.0000
      9 H3          4.2361   -0.2063    0.0000 HC        1 <0>         0.0000
     10 H4          4.2361   -0.2063    0.0000 HC        1 <0>         0.0000
@<TRIPOS>BOND
     1    1    6 1
     2    2    4 2
     3    3    6 2
     4    4    5 1
     5    4    6 1
     6    1    7 1
     7    5    8 1
     8    5    9 1
     9    5   10 1
@<TRIPOS>MOLECULE
*****
   20    20     0     0     0
SMALL
NO_CHARGES

@<TRIPOS>ATOM
      1 O1          0.0000    0.0000    0.0000 OS        1 <0>         0.0000
      2 O2         -0.8974   -1.9370    0.0000 OH        1 <0>         0.0000
      3 O3          0.8974   -1.9370    0.0000 OH        1 <0>         0.0000
      4 C1          0.6674   -0.4849    0.0000 C         1 <0>         0.0000
      5 O4          1.4521   -0.2300    0.0000 O         1 <0>         0.0000
      6 C2          0.4125   -1.2695    0.0000 CM        1 <0>         0.0000
      7 C3         -0.4125   -1.2695    0.0000 CM        1 <0>         0.0000
      8 O5         -2.8109   -0.0724    0.0000 OH        1 <0>         0.0000
      9 C4         -2.0964   -0.4849    0.0000 CT        1 <0>         0.0000
     10 C5         -1.3819   -0.0724    0.0000 CT        1 <0>         0.0000
     11 O6         -1.3819    0.7526    0.0000 OH        1 <0>         0.0000
     12 C6         -0.6674   -0.4849    0.0000 CT        1 <0>         0.0000
     13 H1         -1.2508   -1.0683    0.0000 H1        1 <0>         0.0000
     14 H2         -0.8974   -1.9370    0.0000 HO        1 <0>         0.0000
     15 H3          0.8974   -1.9370    0.0000 HO        1 <0>         0.0000
     16 H4         -2.8109   -0.0724    0.0000 HO        1 <0>         0.0000
     17 H5         -2.0964   -0.4849    0.0000 H1        1 <0>         0.0000
     18 H6         -2.0964   -0.4849    0.0000 H1        1 <0>         0.0000
     19 H7         -1.3819   -0.0724    0.0000 H1        1 <0>         0.0000
     20 H8         -1.3819    0.7526    0.0000 HO        1 <0>         0.0000
@<TRIPOS>BOND
     1    1    4 1
     2    1   12 1
     3    2    7 1
     4    3    6 1
     5    4    5 2
     6    4    6 1
     7    6    7 2
     8    7   12 1
     9    8    9 1
    10    9   10 1
    11   10   12 1
    12   10   11 1
    13   12   13 1
    14    2   14 1
    15    3   15 1
    16    8   16 1
    17    9   17 1
    18    9   18 1
    19   10   19 1
    20   11   20 1
@<TRIPOS>MOLECULE
132
   50    49     0     0     0
SMALL
NO_CHARGES

@<TRIPOS>ATOM
      1 O1          2.3645    3.2217    0.0000 OH        1 <0>         0.0000
      2 O2          1.6500    1.9842    0.0000 O         1 <0>         0.0000
      3 C1          3.7935   -0.0784    0.0000 CT        1 <0>         0.0000
      4 C2          4.5080   -0.4909    0.0000 CT        1 <0>         0.0000
      5 C3          3.7935    0.7466    0.0000 CT        1 <0>         0.0000
      6 C4          4.5080   -1.3159    0.0000 CT        1 <0>         0.0000
      7 C5          3.0791    1.1592    0.0000 CT        1 <0>         0.0000
      8 C6          5.2224   -1.7284    0.0000 CT        1 <0>         0.0000
      9 C7          3.0791    1.9842    0.0000 CT        1 <0>         0.0000
     10 C8          5.2224   -2.5534    0.0000 CM        1 <0>         0.0000
     11 C9          2.3645    2.3967    0.0000 C         1 <0>         0.0000
     12 C10         5.9370   -2.9659    0.0000 CM        1 <0>         0.0000
     13 C11         6.6515   -2.5534    0.0000 CT        1 <0>         0.0000
     14 C12         7.3659   -2.9659    0.0000 CM        1 <0>         0.0000
     15 C13         8.0804   -2.5534    0.0000 CM        1 <0>         0.0000
     16 C14         8.0804   -1.7284    0.0000 CT        1 <0>         0.0000
     17 C15         8.7949   -1.3159    0.0000 CM        1 <0>         0.0000
     18 C16         8.7949   -0.4909    0.0000 CM        1 <0>         0.0000
     19 C17         8.0804   -0.0784    0.0000 CT        1 <0>         0.0000
     20 C18         8.0804    0.7466    0.0000 CT        1 <0>         0.0000
     21 H1          2.3645    3.2217    0.0000 HO        1 <0>         0.0000
     22 H2          3.7935   -0.0784    0.0000 HC        1 <0>         0.0000
     23 H3          3.7935   -0.0784    0.0000 HC        1 <0>         0.0000
     24 H4          4.5080   -0.4909    0.0000 HC        1 <0>         0.0000
     25 H5          4.5080   -0.4909    0.0000 HC        1 <0>         0.0000
     26 H6          3.7935    0.7466    0.0000 HC        1 <0>         0.0000
     27 H7          3.7935    0.7466    0.0000 HC        1 <0>         0.0000
     28 H8          4.5080   -1.3159    0.0000 HC        1 <0>         0.0000
     29 H9          4.5080   -1.3159    0.0000 HC        1 <0>         0.0000
     30 H10         3.0791    1.1592    0.0000 HC        1 <0>         0.0000
     31 H11         3.0791    1.1592    0.0000 HC        1 <0>         0.0000
     32 H12         5.2224   -1.7284    0.0000 HC        1 <0>         0.0000
     33 H13         5.2224   -1.7284    0.0000 HC        1 <0>         0.0000
     34 H14         3.0791    1.9842    0.0000 HC        1 <0>         0.0000
     35 H15         3.0791    1.9842    0.0000 HC        1 <0>         0.0000
     36 H16         5.2224   -2.5534    0.0000 HA        1 <0>         0.0000
     37 H17         5.9370   -2.9659    0.0000 HA        1 <0>         0.0000
     38 H18         6.6515   -2.5534    0.0000 HC        1 <0>         0.0000
     39 H19         6.6515   -2.5534    0.0000 HC        1 <0>         0.0000
     40 H20         7.3659   -2.9659    0.0000 HA        1 <0>         0.0000
     41 H21         8.0804   -2.5534    0.0000 HA        1 <0>         0.0000
     42 H22         8.0804   -1.7284    0.0000 HC        1 <0>         0.0000
     43 H23         8.0804   -1.7284    0.0000 HC        1 <0>         0.0000
     44 H24         8.7949   -1.3159    0.0000 HA        1 <0>         0.0000
     45 H25         8.7949   -0.4909    0.0000 HA        1 <0>         0.0000
     46 H26         8.0804   -0.0784    0.0000 HC        1 <0>         0.0000
     47 H27         8.0804   -0.0784    0.0000 HC        1 <0>         0.0000
     48 H28         8.0804    0.7466    0.0000 HC        1 <0>         0.0000
     49 H29         8.0804    0.7466    0.0000 HC        1 <0>         0.0000
     50 H30         8.0804    0.7466    0.0000 HC        1 <0>         0.0000
@<TRIPOS>BOND
     1    1   11 1
     2    2   11 2
     3    3    4 1
     4    3    5 1
     5    4    6 1
     6    5    7 1
     7    6    8 1
     8    7    9 1
     9    8   10 1
    10    9   11 1
    11   10   12 2
    12   12   13 1
    13   13   14 1
    14   14   15 2
    15   15   16 1
    16   16   17 1
    17   17   18 2
    18   18   19 1
    19   19   20 1
    20    1   21 1
    21    3   22 1
    22    3   23 1
    23    4   24 1
    24    4   25 1
    25    5   26 1
    26    5   27 1
    27    6   28 1
    28    6   29 1
    29    7   30 1
    30    7   31 1
    31    8   32 1
    32    8   33 1
    33    9   34 1
    34    9   35 1
    35   10   36 1
    36   12   37 1
    37   13   38 1
    38   13   39 1
    39   14   40 1
    40   15   41 1
    41   16   42 1
    42   16   43 1
    43   17   44 1
    44   18   45 1
    45   19   46 1
    46   19   47 1
    47   20   48 1
    48   20   49 1
    49   20   50 1
@<TRIPOS>MOLECULE
*****
   74    76     0     0     0
SMALL
NO_CHARGES

@<TRIPOS>ATOM
      1 C1         -1.0890    1.2765    0.0000 CT        1 <0>         0.0000
      2 C2         -1.0890   -0.3735    0.0000 CM        1 <0>         0.0000
      3 C3          0.4101   -0.2159    0.0000 CT        1 <0>         0.0000
      4 C4          0.8950    0.4515    0.0000 CT        1 <0>         0.0000
      5 C5         -1.8035    0.8640    0.0000 CT        1 <0>         0.0000
      6 C6         -1.0890   -1.1985    0.0000 CM        1 <0>         0.0000
      7 C7         -1.8035    0.0390    0.0000 CT        1 <0>         0.0000
      8 C8         -1.8035   -1.6110    0.0000 CM        1 <0>         0.0000
      9 C9         -1.8035   -2.4360    0.0000 CM        1 <0>         0.0000
     10 C10        -1.0890   -2.8485    0.0000 CM        1 <0>         0.0000
     11 C11        -2.5179   -2.8485    0.0000 CT        1 <0>         0.0000
     12 C12        -0.3745   -2.4360    0.0000 CM        1 <0>         0.0000
     13 C13        -2.5179   -3.6735    0.0000 CT        1 <0>         0.0000
     14 C14        -1.8035   -4.0860    0.0000 CT        1 <0>         0.0000
     15 O1         -3.2324   -4.0860    0.0000 OH        1 <0>         0.0000
     16 C15        -0.3044    2.3565    0.0000 CT        1 <0>         0.0000
     17 C16         0.4101    1.9440    0.0000 CT        1 <0>         0.0000
     18 C17         1.1246    2.3565    0.0000 CT        1 <0>         0.0000
     19 C18         1.8390    1.9440    0.0000 CT        1 <0>         0.0000
     20 C19         3.9825    2.3565    0.0000 CT        1 <0>         0.0000
     21 C20         3.2680    1.1190    0.0000 CT        1 <0>         0.0000
     22 C21         2.5535    2.3565    0.0000 CT        1 <0>         0.0000
     23 C22         0.4101    1.1190    0.0000 CT        1 <0>         0.0000
     24 H1          1.1246    1.5315    0.0000 HC        1 <0>         0.0000
     25 C23        -0.3745    0.0390    0.0000 CT        1 <0>         0.0000
     26 H2         -0.3745   -0.7860    0.0000 HC        1 <0>         0.0000
     27 C24        -0.3745    0.8640    0.0000 CT        1 <0>         0.0000
     28 C25        -0.3745    1.6890    0.0000 CT        1 <0>         0.0000
     29 C26         3.2680    1.9440    0.0000 CT        1 <0>         0.0000
     30 O2          3.9825    1.5315    0.0000 OH        1 <0>         0.0000
     31 C27        -1.0890   -3.6735    0.0000 CT        1 <0>         0.0000
     32 O3         -0.3745   -4.0860    0.0000 OH        1 <0>         0.0000
     33 H3         -1.0890    1.2765    0.0000 HC        1 <0>         0.0000
     34 H4         -1.0890    1.2765    0.0000 HC        1 <0>         0.0000
     35 H5          0.4101   -0.2159    0.0000 HC        1 <0>         0.0000
     36 H6          0.4101   -0.2159    0.0000 HC        1 <0>         0.0000
     37 H7          0.8950    0.4515    0.0000 HC        1 <0>         0.0000
     38 H8          0.8950    0.4515    0.0000 HC        1 <0>         0.0000
     39 H9         -1.8035    0.8640    0.0000 HC        1 <0>         0.0000
     40 H10        -1.8035    0.8640    0.0000 HC        1 <0>         0.0000
     41 H11        -1.0890   -1.1985    0.0000 HA        1 <0>         0.0000
     42 H12        -1.8035    0.0390    0.0000 HC        1 <0>         0.0000
     43 H13        -1.8035    0.0390    0.0000 HC        1 <0>         0.0000
     44 H14        -1.8035   -1.6110    0.0000 HA        1 <0>         0.0000
     45 H15        -2.5179   -2.8485    0.0000 HC        1 <0>         0.0000
     46 H16        -2.5179   -2.8485    0.0000 HC        1 <0>         0.0000
     47 H17        -0.3745   -2.4360    0.0000 HA        1 <0>         0.0000
     48 H18        -0.3745   -2.4360    0.0000 HA        1 <0>         0.0000
     49 H19        -2.5179   -3.6735    0.0000 H1        1 <0>         0.0000
     50 H20        -1.8035   -4.0860    0.0000 HC        1 <0>         0.0000
     51 H21        -1.8035   -4.0860    0.0000 HC        1 <0>         0.0000
     52 H22        -3.2324   -4.0860    0.0000 HO        1 <0>         0.0000
     53 H23        -0.3044    2.3565    0.0000 HC        1 <0>         0.0000
     54 H24        -0.3044    2.3565    0.0000 HC        1 <0>         0.0000
     55 H25        -0.3044    2.3565    0.0000 HC        1 <0>         0.0000
     56 H26         0.4101    1.9440    0.0000 HC        1 <0>         0.0000
     57 H27         1.1246    2.3565    0.0000 HC        1 <0>         0.0000
     58 H28         1.1246    2.3565    0.0000 HC        1 <0>         0.0000
     59 H29         1.8390    1.9440    0.0000 HC        1 <0>         0.0000
     60 H30         1.8390    1.9440    0.0000 HC        1 <0>         0.0000
     61 H31         3.9825    2.3565    0.0000 HC        1 <0>         0.0000
     62 H32         3.9825    2.3565    0.0000 HC        1 <0>         0.0000
     63 H33         3.9825    2.3565    0.0000 HC        1 <0>         0.0000
     64 H34         3.2680    1.1190    0.0000 HC        1 <0>         0.0000
     65 H35         3.2680    1.1190    0.0000 HC        1 <0>         0.0000
     66 H36         3.2680    1.1190    0.0000 HC        1 <0>         0.0000
     67 H37         2.5535    2.3565    0.0000 HC        1 <0>         0.0000
     68 H38         2.5535    2.3565    0.0000 HC        1 <0>         0.0000
     69 H39        -0.3745    1.6890    0.0000 HC        1 <0>         0.0000
     70 H40        -0.3745    1.6890    0.0000 HC        1 <0>         0.0000
     71 H41        -0.3745    1.6890    0.0000 HC        1 <0>         0.0000
     72 H42         3.9825    1.5315    0.0000 HO        1 <0>         0.0000
     73 H43        -1.0890   -3.6735    0.0000 H1        1 <0>         0.0000
     74 H44        -0.3745   -4.0860    0.0000 HO        1 <0>         0.0000
@<TRIPOS>BOND
     1   25   27 1
     2   23   27 1
     3    1   27 1
     4    2   25 1
     5    3   25 1
     6    4   23 1
     7    1    5 1
     8    2    6 2
     9    2    7 1
    10    6    8 1
    11    8    9 2
    12    9   10 1
    13    9   11 1
    14   10   31 1
    15   10   12 2
    16   11   13 1
    17   14   31 1
    18   13   15 1
    19    3    4 1
    20    5    7 1
    21   13   14 1
    22   17   23 1
    23   16   17 1
    24   17   18 1
    25   18   19 1
    26   19   22 1
    27   22   29 1
    28   20   29 1
    29   21   29 1
    30   23   24 1
    31   25   26 1
    32   27   28 1
    33   29   30 1
    34   31   32 1
    35    1   33 1
    36    1   34 1
    37    3   35 1
    38    3   36 1
    39    4   37 1
    40    4   38 1
    41    5   39 1
    42    5   40 1
    43    6   41 1
    44    7   42 1
    45    7   43 1
    46    8   44 1
    47   11   45 1
    48   11   46 1
    49   12   47 1
    50   12   48 1
    51   13   49 1
    52   14   50 1
    53   14   51 1
    54   15   52 1
    55   16   53 1
    56   16   54 1
    57   16   55 1
    58   17   56 1
    59   18   57 1
    60   18   58 1
    61   19   59 1
    62   19   60 1
    63   20   61 1
    64   20   62 1
    65   20   63 1
    66   21   64 1
    67   21   65 1
    68   21   66 1
    69   22   67 1
    70   22   68 1
    71   28   69 1
    72   28   70 1
    73   28   71 1
    74   30   72 1
    75   31   73 1
    76   32   74 1
@<TRIPOS>MOLECULE
137
   98    99     0     0     0
SMALL
NO_CHARGES

@<TRIPOS>ATOM
      1 O1          3.1895   -8.4564    0.0000 OH        1 <0>         0.0000
      2 O2          9.6200    8.4564    0.0000 OH        1 <0>         0.0000
      3 C1          2.4751   -6.3939    0.0000 CT        1 <0>         0.0000
      4 C2          3.1895   -5.9814    0.0000 CT        1 <0>         0.0000
      5 C3          2.4751   -7.2189    0.0000 CT        1 <0>         0.0000
      6 C4          3.1895   -7.6314    0.0000 CT        1 <0>         0.0000
      7 C5          3.9041   -6.3939    0.0000 CM        1 <0>         0.0000
      8 C6         10.3344    6.3939    0.0000 CT        1 <0>         0.0000
      9 C7          2.0625   -5.6794    0.0000 CT        1 <0>         0.0000
     10 C8          1.6500   -6.3939    0.0000 CT        1 <0>         0.0000
     11 C9         10.3344    7.2189    0.0000 CT        1 <0>         0.0000
     12 C10         3.9041   -7.2189    0.0000 CM        1 <0>         0.0000
     13 C11         9.6200    7.6314    0.0000 CT        1 <0>         0.0000
     14 C12         9.6200    5.9814    0.0000 CM        1 <0>         0.0000
     15 C13         3.1895   -5.1564    0.0000 CM        1 <0>         0.0000
     16 C14         8.9054    7.2189    0.0000 CT        1 <0>         0.0000
     17 C15         8.9054    6.3939    0.0000 CM        1 <0>         0.0000
     18 C16        10.7469    5.6794    0.0000 CT        1 <0>         0.0000
     19 C17        11.1594    6.3939    0.0000 CT        1 <0>         0.0000
     20 C18         4.6185   -5.9814    0.0000 CT        1 <0>         0.0000
     21 C19         3.9041   -4.7439    0.0000 CM        1 <0>         0.0000
     22 C20         9.6200    5.1564    0.0000 CM        1 <0>         0.0000
     23 C21         8.1909    5.9814    0.0000 CT        1 <0>         0.0000
     24 C22         3.9041   -3.9188    0.0000 CM        1 <0>         0.0000
     25 C23         8.9054    4.7439    0.0000 CM        1 <0>         0.0000
     26 C24         3.1895   -3.5063    0.0000 CT        1 <0>         0.0000
     27 C25         8.9054    3.9188    0.0000 CM        1 <0>         0.0000
     28 C26         4.6185   -3.5063    0.0000 CM        1 <0>         0.0000
     29 C27         9.6200    3.5063    0.0000 CT        1 <0>         0.0000
     30 C28         8.1909    3.5063    0.0000 CM        1 <0>         0.0000
     31 C29         4.6185   -2.6813    0.0000 CM        1 <0>         0.0000
     32 C30         8.1909    2.6813    0.0000 CM        1 <0>         0.0000
     33 C31         5.3330   -2.2688    0.0000 CM        1 <0>         0.0000
     34 C32         5.3330   -1.4438    0.0000 CM        1 <0>         0.0000
     35 C33         7.4765    2.2688    0.0000 CM        1 <0>         0.0000
     36 C34         7.4765    1.4438    0.0000 CM        1 <0>         0.0000
     37 C35         4.6185   -1.0313    0.0000 CT        1 <0>         0.0000
     38 C36         6.0475   -1.0313    0.0000 CM        1 <0>         0.0000
     39 C37         6.7620    1.0313    0.0000 CM        1 <0>         0.0000
     40 C38         8.1909    1.0313    0.0000 CT        1 <0>         0.0000
     41 C39         6.0475   -0.2063    0.0000 CM        1 <0>         0.0000
     42 C40         6.7620    0.2063    0.0000 CM        1 <0>         0.0000
     43 H1          3.1895   -8.4564    0.0000 HO        1 <0>         0.0000
     44 H2          9.6200    8.4564    0.0000 HO        1 <0>         0.0000
     45 H3          3.1895   -5.9814    0.0000 HC        1 <0>         0.0000
     46 H4          2.4751   -7.2189    0.0000 HC        1 <0>         0.0000
     47 H5          2.4751   -7.2189    0.0000 HC        1 <0>         0.0000
     48 H6          3.1895   -7.6314    0.0000 H1        1 <0>         0.0000
     49 H7          2.0625   -5.6794    0.0000 HC        1 <0>         0.0000
     50 H8          2.0625   -5.6794    0.0000 HC        1 <0>         0.0000
     51 H9          2.0625   -5.6794    0.0000 HC        1 <0>         0.0000
     52 H10         1.6500   -6.3939    0.0000 HC        1 <0>         0.0000
     53 H11         1.6500   -6.3939    0.0000 HC        1 <0>         0.0000
     54 H12         1.6500   -6.3939    0.0000 HC        1 <0>         0.0000
     55 H13        10.3344    7.2189    0.0000 HC        1 <0>         0.0000
     56 H14        10.3344    7.2189    0.0000 HC        1 <0>         0.0000
     57 H15         3.9041   -7.2189    0.0000 HA        1 <0>         0.0000
     58 H16         9.6200    7.6314    0.0000 H1        1 <0>         0.0000
     59 H17         3.1895   -5.1564    0.0000 HA        1 <0>         0.0000
     60 H18         8.9054    7.2189    0.0000 HC        1 <0>         0.0000
     61 H19         8.9054    7.2189    0.0000 HC        1 <0>         0.0000
     62 H20        10.7469    5.6794    0.0000 HC        1 <0>         0.0000
     63 H21        10.7469    5.6794    0.0000 HC        1 <0>         0.0000
     64 H22        10.7469    5.6794    0.0000 HC        1 <0>         0.0000
     65 H23        11.1594    6.3939    0.0000 HC        1 <0>         0.0000
     66 H24        11.1594    6.3939    0.0000 HC        1 <0>         0.0000
     67 H25        11.1594    6.3939    0.0000 HC        1 <0>         0.0000
     68 H26         4.6185   -5.9814    0.0000 HC        1 <0>         0.0000
     69 H27         4.6185   -5.9814    0.0000 HC        1 <0>         0.0000
     70 H28         4.6185   -5.9814    0.0000 HC        1 <0>         0.0000
     71 H29         3.9041   -4.7439    0.0000 HA        1 <0>         0.0000
     72 H30         9.6200    5.1564    0.0000 HA        1 <0>         0.0000
     73 H31         8.1909    5.9814    0.0000 HC        1 <0>         0.0000
     74 H32         8.1909    5.9814    0.0000 HC        1 <0>         0.0000
     75 H33         8.1909    5.9814    0.0000 HC        1 <0>         0.0000
     76 H34         8.9054    4.7439    0.0000 HA        1 <0>         0.0000
     77 H35         3.1895   -3.5063    0.0000 HC        1 <0>         0.0000
     78 H36         3.1895   -3.5063    0.0000 HC        1 <0>         0.0000
     79 H37         3.1895   -3.5063    0.0000 HC        1 <0>         0.0000
     80 H38         4.6185   -3.5063    0.0000 HA        1 <0>         0.0000
     81 H39         9.6200    3.5063    0.0000 HC        1 <0>         0.0000
     82 H40         9.6200    3.5063    0.0000 HC        1 <0>         0.0000
     83 H41         9.6200    3.5063    0.0000 HC        1 <0>         0.0000
     84 H42         8.1909    3.5063    0.0000 HA        1 <0>         0.0000
     85 H43         4.6185   -2.6813    0.0000 HA        1 <0>         0.0000
     86 H44         8.1909    2.6813    0.0000 HA        1 <0>         0.0000
     87 H45         5.3330   -2.2688    0.0000 HA        1 <0>         0.0000
     88 H46         7.4765    2.2688    0.0000 HA        1 <0>         0.0000
     89 H47         4.6185   -1.0313    0.0000 HC        1 <0>         0.0000
     90 H48         4.6185   -1.0313    0.0000 HC        1 <0>         0.0000
     91 H49         4.6185   -1.0313    0.0000 HC        1 <0>         0.0000
     92 H50         6.0475   -1.0313    0.0000 HA        1 <0>         0.0000
     93 H51         6.7620    1.0313    0.0000 HA        1 <0>         0.0000
     94 H52         8.1909    1.0313    0.0000 HC        1 <0>         0.0000
     95 H53         8.1909    1.0313    0.0000 HC        1 <0>         0.0000
     96 H54         8.1909    1.0313    0.0000 HC        1 <0>         0.0000
     97 H55         6.0475   -0.2063    0.0000 HA        1 <0>         0.0000
     98 H56         6.7620    0.2063    0.0000 HA        1 <0>         0.0000
@<TRIPOS>BOND
     1    1    6 1
     2    2   13 1
     3    3    4 1
     4    3    5 1
     5    3    9 1
     6    3   10 1
     7    4    7 1
     8    4   15 1
     9    5    6 1
    10    6   12 1
    11    7   12 2
    12    7   20 1
    13    8   11 1
    14    8   14 1
    15    8   18 1
    16    8   19 1
    17   11   13 1
    18   13   16 1
    19   14   17 2
    20   14   22 1
    21   15   21 2
    22   16   17 1
    23   17   23 1
    24   21   24 1
    25   22   25 2
    26   24   26 1
    27   24   28 2
    28   25   27 1
    29   27   29 1
    30   27   30 2
    31   28   31 1
    32   30   32 1
    33   31   33 2
    34   32   35 2
    35   33   34 1
    36   34   37 1
    37   34   38 2
    38   35   36 1
    39   36   39 2
    40   36   40 1
    41   38   41 1
    42   39   42 1
    43   41   42 2
    44    1   43 1
    45    2   44 1
    46    4   45 1
    47    5   46 1
    48    5   47 1
    49    6   48 1
    50    9   49 1
    51    9   50 1
    52    9   51 1
    53   10   52 1
    54   10   53 1
    55   10   54 1
    56   11   55 1
    57   11   56 1
    58   12   57 1
    59   13   58 1
    60   15   59 1
    61   16   60 1
    62   16   61 1
    63   18   62 1
    64   18   63 1
    65   18   64 1
    66   19   65 1
    67   19   66 1
    68   19   67 1
    69   20   68 1
    70   20   69 1
    71   20   70 1
    72   21   71 1
    73   22   72 1
    74   23   73 1
    75   23   74 1
    76   23   75 1
    77   25   76 1
    78   26   77 1
    79   26   78 1
    80   26   79 1
    81   28   80 1
    82   29   81 1
    83   29   82 1
    84   29   83 1
    85   30   84 1
    86   31   85 1
    87   32   86 1
    88   33   87 1
    89   35   88 1
    90   37   89 1
    91   37   90 1
    92   37   91 1
    93   38   92 1
    94   39   93 1
    95   40   94 1
    96   40   95 1
    97   40   96 1
    98   41   97 1
    99   42   98 1
@<TRIPOS>MOLECULE
139
   14    13     0     0     0
SMALL
NO_CHARGES

@<TRIPOS>ATOM
      1 O1          2.0928    0.2063    0.0000 OH        1 <0>         0.0000
      2 O2          5.6650   -0.2063    0.0000 OH        1 <0>         0.0000
      3 O3          2.8072   -1.0312    0.0000 O         1 <0>         0.0000
      4 O4          4.9504    1.0312    0.0000 O         1 <0>         0.0000
      5 C1          3.5217    0.2063    0.0000 CT        1 <0>         0.0000
      6 C2          4.2361   -0.2063    0.0000 CT        1 <0>         0.0000
      7 C3          2.8072   -0.2063    0.0000 C         1 <0>         0.0000
      8 C4          4.9504    0.2063    0.0000 C         1 <0>         0.0000
      9 H1          2.0928    0.2063    0.0000 HO        1 <0>         0.0000
     10 H2          5.6650   -0.2063    0.0000 HO        1 <0>         0.0000
     11 H3          3.5217    0.2063    0.0000 HC        1 <0>         0.0000
     12 H4          3.5217    0.2063    0.0000 HC        1 <0>         0.0000
     13 H5          4.2361   -0.2063    0.0000 HC        1 <0>         0.0000
     14 H6          4.2361   -0.2063    0.0000 HC        1 <0>         0.0000
@<TRIPOS>BOND
     1    1    7 1
     2    2    8 1
     3    3    7 2
     4    4    8 2
     5    5    6 1
     6    5    7 1
     7    6    8 1
     8    1    9 1
     9    2   10 1
    10    5   11 1
    11    5   12 1
    12    6   13 1
    13    6   14 1
@<TRIPOS>MOLECULE
*****
   73    75     0     0     0
SMALL
NO_CHARGES

@<TRIPOS>ATOM
      1 C1         -1.0890    1.2765    0.0000 CT        1 <0>         0.0000
      2 C2         -1.0890   -0.3735    0.0000 CM        1 <0>         0.0000
      3 C3          0.4101   -0.2159    0.0000 CT        1 <0>         0.0000
      4 C4          0.8950    0.4515    0.0000 CT        1 <0>         0.0000
      5 C5         -1.8035    0.8640    0.0000 CT        1 <0>         0.0000
      6 C6         -1.0890   -1.1985    0.0000 CM        1 <0>         0.0000
      7 C7         -1.8035    0.0390    0.0000 CT        1 <0>         0.0000
      8 C8         -1.8035   -1.6110    0.0000 CM        1 <0>         0.0000
      9 C9         -1.8035   -2.4360    0.0000 CM        1 <0>         0.0000
     10 C10        -1.0890   -2.8485    0.0000 CM        1 <0>         0.0000
     11 C11        -2.5179   -2.8485    0.0000 CT        1 <0>         0.0000
     12 C12        -1.0890   -3.6735    0.0000 CT        1 <0>         0.0000
     13 C13        -0.3745   -2.4360    0.0000 CM        1 <0>         0.0000
     14 C14        -2.5179   -3.6735    0.0000 CT        1 <0>         0.0000
     15 C15        -1.8035   -4.0860    0.0000 CT        1 <0>         0.0000
     16 O1         -3.2324   -4.0860    0.0000 OH        1 <0>         0.0000
     17 C16        -0.3044    2.3565    0.0000 CT        1 <0>         0.0000
     18 C17         0.4101    1.9440    0.0000 CT        1 <0>         0.0000
     19 C18         1.1246    2.3565    0.0000 CT        1 <0>         0.0000
     20 C19         1.8390    1.9440    0.0000 CT        1 <0>         0.0000
     21 C20         3.9825    2.3565    0.0000 CT        1 <0>         0.0000
     22 C21         3.2680    1.1190    0.0000 CT        1 <0>         0.0000
     23 C22         2.5535    2.3565    0.0000 CT        1 <0>         0.0000
     24 C23         0.4101    1.1190    0.0000 CT        1 <0>         0.0000
     25 H1          1.1246    1.5315    0.0000 HC        1 <0>         0.0000
     26 C24        -0.3745    0.0390    0.0000 CT        1 <0>         0.0000
     27 H2         -0.3745   -0.7860    0.0000 HC        1 <0>         0.0000
     28 C25        -0.3745    0.8640    0.0000 CT        1 <0>         0.0000
     29 C26        -0.3745    1.6890    0.0000 CT        1 <0>         0.0000
     30 C27         3.2680    1.9440    0.0000 CT        1 <0>         0.0000
     31 O2          3.9825    1.5315    0.0000 OH        1 <0>         0.0000
     32 H3         -1.0890    1.2765    0.0000 HC        1 <0>         0.0000
     33 H4         -1.0890    1.2765    0.0000 HC        1 <0>         0.0000
     34 H5          0.4101   -0.2159    0.0000 HC        1 <0>         0.0000
     35 H6          0.4101   -0.2159    0.0000 HC        1 <0>         0.0000
     36 H7          0.8950    0.4515    0.0000 HC        1 <0>         0.0000
     37 H8          0.8950    0.4515    0.0000 HC        1 <0>         0.0000
     38 H9         -1.8035    0.8640    0.0000 HC        1 <0>         0.0000
     39 H10        -1.8035    0.8640    0.0000 HC        1 <0>         0.0000
     40 H11        -1.0890   -1.1985    0.0000 HA        1 <0>         0.0000
     41 H12        -1.8035    0.0390    0.0000 HC        1 <0>         0.0000
     42 H13        -1.8035    0.0390    0.0000 HC        1 <0>         0.0000
     43 H14        -1.8035   -1.6110    0.0000 HA        1 <0>         0.0000
     44 H15        -2.5179   -2.8485    0.0000 HC        1 <0>         0.0000
     45 H16        -2.5179   -2.8485    0.0000 HC        1 <0>         0.0000
     46 H17        -1.0890   -3.6735    0.0000 HC        1 <0>         0.0000
     47 H18        -1.0890   -3.6735    0.0000 HC        1 <0>         0.0000
     48 H19        -0.3745   -2.4360    0.0000 HA        1 <0>         0.0000
     49 H20        -0.3745   -2.4360    0.0000 HA        1 <0>         0.0000
     50 H21        -2.5179   -3.6735    0.0000 H1        1 <0>         0.0000
     51 H22        -1.8035   -4.0860    0.0000 HC        1 <0>         0.0000
     52 H23        -1.8035   -4.0860    0.0000 HC        1 <0>         0.0000
     53 H24        -3.2324   -4.0860    0.0000 HO        1 <0>         0.0000
     54 H25        -0.3044    2.3565    0.0000 HC        1 <0>         0.0000
     55 H26        -0.3044    2.3565    0.0000 HC        1 <0>         0.0000
     56 H27        -0.3044    2.3565    0.0000 HC        1 <0>         0.0000
     57 H28         0.4101    1.9440    0.0000 HC        1 <0>         0.0000
     58 H29         1.1246    2.3565    0.0000 HC        1 <0>         0.0000
     59 H30         1.1246    2.3565    0.0000 HC        1 <0>         0.0000
     60 H31         1.8390    1.9440    0.0000 HC        1 <0>         0.0000
     61 H32         1.8390    1.9440    0.0000 HC        1 <0>         0.0000
     62 H33         3.9825    2.3565    0.0000 HC        1 <0>         0.0000
     63 H34         3.9825    2.3565    0.0000 HC        1 <0>         0.0000
     64 H35         3.9825    2.3565    0.0000 HC        1 <0>         0.0000
     65 H36         3.2680    1.1190    0.0000 HC        1 <0>         0.0000
     66 H37         3.2680    1.1190    0.0000 HC        1 <0>         0.0000
     67 H38         3.2680    1.1190    0.0000 HC        1 <0>         0.0000
     68 H39         2.5535    2.3565    0.0000 HC        1 <0>         0.0000
     69 H40         2.5535    2.3565    0.0000 HC        1 <0>         0.0000
     70 H41        -0.3745    1.6890    0.0000 HC        1 <0>         0.0000
     71 H42        -0.3745    1.6890    0.0000 HC        1 <0>         0.0000
     72 H43        -0.3745    1.6890    0.0000 HC        1 <0>         0.0000
     73 H44         3.9825    1.5315    0.0000 HO        1 <0>         0.0000
@<TRIPOS>BOND
     1   26   28 1
     2   24   28 1
     3    1   28 1
     4    2   26 1
     5    3   26 1
     6    4   24 1
     7    1    5 1
     8    2    6 2
     9    2    7 1
    10    6    8 1
    11    8    9 2
    12    9   10 1
    13    9   11 1
    14   10   12 1
    15   10   13 2
    16   11   14 1
    17   12   15 1
    18   14   16 1
    19    3    4 1
    20    5    7 1
    21   14   15 1
    22   18   24 1
    23   17   18 1
    24   18   19 1
    25   19   20 1
    26   20   23 1
    27   23   30 1
    28   21   30 1
    29   22   30 1
    30   24   25 1
    31   26   27 1
    32   28   29 1
    33   30   31 1
    34    1   32 1
    35    1   33 1
    36    3   34 1
    37    3   35 1
    38    4   36 1
    39    4   37 1
    40    5   38 1
    41    5   39 1
    42    6   40 1
    43    7   41 1
    44    7   42 1
    45    8   43 1
    46   11   44 1
    47   11   45 1
    48   12   46 1
    49   12   47 1
    50   13   48 1
    51   13   49 1
    52   14   50 1
    53   15   51 1
    54   15   52 1
    55   16   53 1
    56   17   54 1
    57   17   55 1
    58   17   56 1
    59   18   57 1
    60   19   58 1
    61   19   59 1
    62   20   60 1
    63   20   61 1
    64   21   62 1
    65   21   63 1
    66   21   64 1
    67   22   65 1
    68   22   66 1
    69   22   67 1
    70   23   68 1
    71   23   69 1
    72   29   70 1
    73   29   71 1
    74   29   72 1
    75   31   73 1
@<TRIPOS>MOLECULE
153
   73    75     0     0     0
SMALL
NO_CHARGES

@<TRIPOS>ATOM
      1 O1          1.6500   -3.9985    0.0000 OH        1 <0>         0.0000
      2 C1          4.5080    0.9517    0.0000 CT        1 <0>         0.0000
      3 C2          5.2886    1.2030    0.0000 CT        1 <0>         0.0000
      4 C3          4.5080    0.1266    0.0000 CT        1 <0>         0.0000
      5 C4          5.7701    0.5391    0.0000 CT        1 <0>         0.0000
      6 C5          5.2886   -0.1247    0.0000 CT        1 <0>         0.0000
      7 C6          3.7935    1.3642    0.0000 CT        1 <0>         0.0000
      8 C7          5.5449    1.9872    0.0000 CT        1 <0>         0.0000
      9 C8          3.7935   -0.2859    0.0000 CM        1 <0>         0.0000
     10 C9          4.5080    1.7767    0.0000 CT        1 <0>         0.0000
     11 C10         3.0791    0.9517    0.0000 CT        1 <0>         0.0000
     12 C11         3.0791    0.1266    0.0000 CT        1 <0>         0.0000
     13 C12         4.9939    2.6013    0.0000 CT        1 <0>         0.0000
     14 C13         6.3522    2.1574    0.0000 CM        1 <0>         0.0000
     15 C14         3.7935   -1.1109    0.0000 CM        1 <0>         0.0000
     16 C15         6.6086    2.9416    0.0000 CM        1 <0>         0.0000
     17 C16         3.0791   -1.5234    0.0000 CM        1 <0>         0.0000
     18 C17         7.4158    3.1117    0.0000 CT        1 <0>         0.0000
     19 C18         3.0791   -2.3484    0.0000 CM        1 <0>         0.0000
     20 C19         7.6721    3.8959    0.0000 CT        1 <0>         0.0000
     21 C20         2.3645   -2.7609    0.0000 CT        1 <0>         0.0000
     22 C21         7.9668    2.4977    0.0000 CT        1 <0>         0.0000
     23 C22         3.7935   -2.7609    0.0000 CM        1 <0>         0.0000
     24 C23         2.3645   -3.5859    0.0000 CT        1 <0>         0.0000
     25 C24         3.7935   -3.5859    0.0000 CT        1 <0>         0.0000
     26 C25         3.0791   -3.9985    0.0000 CT        1 <0>         0.0000
     27 C26         7.1211    4.5100    0.0000 CT        1 <0>         0.0000
     28 C27         8.4794    4.0660    0.0000 CT        1 <0>         0.0000
     29 C28         4.5080   -2.3484    0.0000 CM        1 <0>         0.0000
     30 H1          5.9406    1.3054    0.0000 HC        1 <0>         0.0000
     31 H2          4.5779   -0.5297    0.0000 HC        1 <0>         0.0000
     32 H3          1.6500   -3.9985    0.0000 HO        1 <0>         0.0000
     33 H4          5.7701    0.5391    0.0000 HC        1 <0>         0.0000
     34 H5          5.7701    0.5391    0.0000 HC        1 <0>         0.0000
     35 H6          5.2886   -0.1247    0.0000 HC        1 <0>         0.0000
     36 H7          5.2886   -0.1247    0.0000 HC        1 <0>         0.0000
     37 H8          3.7935    1.3642    0.0000 HC        1 <0>         0.0000
     38 H9          3.7935    1.3642    0.0000 HC        1 <0>         0.0000
     39 H10         5.5449    1.9872    0.0000 HC        1 <0>         0.0000
     40 H11         4.5080    1.7767    0.0000 HC        1 <0>         0.0000
     41 H12         4.5080    1.7767    0.0000 HC        1 <0>         0.0000
     42 H13         4.5080    1.7767    0.0000 HC        1 <0>         0.0000
     43 H14         3.0791    0.9517    0.0000 HC        1 <0>         0.0000
     44 H15         3.0791    0.9517    0.0000 HC        1 <0>         0.0000
     45 H16         3.0791    0.1266    0.0000 HC        1 <0>         0.0000
     46 H17         3.0791    0.1266    0.0000 HC        1 <0>         0.0000
     47 H18         4.9939    2.6013    0.0000 HC        1 <0>         0.0000
     48 H19         4.9939    2.6013    0.0000 HC        1 <0>         0.0000
     49 H20         4.9939    2.6013    0.0000 HC        1 <0>         0.0000
     50 H21         6.3522    2.1574    0.0000 HA        1 <0>         0.0000
     51 H22         3.7935   -1.1109    0.0000 HA        1 <0>         0.0000
     52 H23         6.6086    2.9416    0.0000 HA        1 <0>         0.0000
     53 H24         3.0791   -1.5234    0.0000 HA        1 <0>         0.0000
     54 H25         7.4158    3.1117    0.0000 HC        1 <0>         0.0000
     55 H26         7.6721    3.8959    0.0000 HC        1 <0>         0.0000
     56 H27         2.3645   -2.7609    0.0000 HC        1 <0>         0.0000
     57 H28         2.3645   -2.7609    0.0000 HC        1 <0>         0.0000
     58 H29         7.9668    2.4977    0.0000 HC        1 <0>         0.0000
     59 H30         7.9668    2.4977    0.0000 HC        1 <0>         0.0000
     60 H31         7.9668    2.4977    0.0000 HC        1 <0>         0.0000
     61 H32         2.3645   -3.5859    0.0000 H1        1 <0>         0.0000
     62 H33         3.7935   -3.5859    0.0000 HC        1 <0>         0.0000
     63 H34         3.7935   -3.5859    0.0000 HC        1 <0>         0.0000
     64 H35         3.0791   -3.9985    0.0000 HC        1 <0>         0.0000
     65 H36         3.0791   -3.9985    0.0000 HC        1 <0>         0.0000
     66 H37         7.1211    4.5100    0.0000 HC        1 <0>         0.0000
     67 H38         7.1211    4.5100    0.0000 HC        1 <0>         0.0000
     68 H39         7.1211    4.5100    0.0000 HC        1 <0>         0.0000
     69 H40         8.4794    4.0660    0.0000 HC        1 <0>         0.0000
     70 H41         8.4794    4.0660    0.0000 HC        1 <0>         0.0000
     71 H42         8.4794    4.0660    0.0000 HC        1 <0>         0.0000
     72 H43         4.5080   -2.3484    0.0000 HA        1 <0>         0.0000
     73 H44         4.5080   -2.3484    0.0000 HA        1 <0>         0.0000
@<TRIPOS>BOND
     1    1   24 1
     2    2    3 1
     3    2    4 1
     4    2    7 1
     5    2   10 1
     6    3    5 1
     7    3    8 1
     8    3   30 1
     9    4    6 1
    10    4    9 1
    11    4   31 1
    12    5    6 1
    13    7   11 1
    14    8   13 1
    15    8   14 1
    16    9   12 1
    17    9   15 2
    18   11   12 1
    19   14   16 2
    20   15   17 1
    21   16   18 1
    22   17   19 2
    23   18   20 1
    24   18   22 1
    25   19   21 1
    26   19   23 1
    27   20   27 1
    28   20   28 1
    29   21   24 1
    30   23   25 1
    31   23   29 2
    32   24   26 1
    33   25   26 1
    34    1   32 1
    35    5   33 1
    36    5   34 1
    37    6   35 1
    38    6   36 1
    39    7   37 1
    40    7   38 1
    41    8   39 1
    42   10   40 1
    43   10   41 1
    44   10   42 1
    45   11   43 1
    46   11   44 1
    47   12   45 1
    48   12   46 1
    49   13   47 1
    50   13   48 1
    51   13   49 1
    52   14   50 1
    53   15   51 1
    54   16   52 1
    55   17   53 1
    56   18   54 1
    57   20   55 1
    58   21   56 1
    59   21   57 1
    60   22   58 1
    61   22   59 1
    62   22   60 1
    63   24   61 1
    64   25   62 1
    65   25   63 1
    66   26   64 1
    67   26   65 1
    68   27   66 1
    69   27   67 1
    70   27   68 1
    71   28   69 1
    72   28   70 1
    73   28   71 1
    74   29   72 1
    75   29   73 1
@<TRIPOS>MOLECULE
5280581
   56    55     0     0     0
SMALL
NO_CHARGES

@<TRIPOS>ATOM
      1 O1          1.6500    2.6813    0.0000 OH        1 <0>         0.0000
      2 O2          3.0790    2.6813    0.0000 O         1 <0>         0.0000
      3 C1          3.7935   -0.2063    0.0000 CT        1 <0>         0.0000
      4 C2          3.0790    0.2063    0.0000 CT        1 <0>         0.0000
      5 C3          3.7935   -1.0313    0.0000 CT        1 <0>         0.0000
      6 C4          3.0790    1.0313    0.0000 CT        1 <0>         0.0000
      7 C5          4.5080   -1.4438    0.0000 CT        1 <0>         0.0000
      8 C6          2.3645    1.4438    0.0000 CT        1 <0>         0.0000
      9 C7          7.3659    1.0313    0.0000 CT        1 <0>         0.0000
     10 C8          6.6515    1.4438    0.0000 CT        1 <0>         0.0000
     11 C9          7.3659    0.2063    0.0000 CT        1 <0>         0.0000
     12 C10         6.6515    2.2688    0.0000 CT        1 <0>         0.0000
     13 C11         4.5080   -2.2688    0.0000 CM        1 <0>         0.0000
     14 C12         5.2224   -2.6813    0.0000 CM        1 <0>         0.0000
     15 C13         8.0804   -0.2063    0.0000 CM        1 <0>         0.0000
     16 C14         2.3645    2.2688    0.0000 C         1 <0>         0.0000
     17 C15         5.9370    2.6813    0.0000 CT        1 <0>         0.0000
     18 C16         5.9370   -2.2688    0.0000 CT        1 <0>         0.0000
     19 C17         8.0804   -1.0313    0.0000 CM        1 <0>         0.0000
     20 C18         7.3659   -1.4438    0.0000 CT        1 <0>         0.0000
     21 C19         6.6515   -2.6813    0.0000 CM        1 <0>         0.0000
     22 C20         7.3659   -2.2688    0.0000 CM        1 <0>         0.0000
     23 H1          1.6500    2.6813    0.0000 HO        1 <0>         0.0000
     24 H2          3.7935   -0.2063    0.0000 HC        1 <0>         0.0000
     25 H3          3.7935   -0.2063    0.0000 HC        1 <0>         0.0000
     26 H4          3.0790    0.2063    0.0000 HC        1 <0>         0.0000
     27 H5          3.0790    0.2063    0.0000 HC        1 <0>         0.0000
     28 H6          3.7935   -1.0313    0.0000 HC        1 <0>         0.0000
     29 H7          3.7935   -1.0313    0.0000 HC        1 <0>         0.0000
     30 H8          3.0790    1.0313    0.0000 HC        1 <0>         0.0000
     31 H9          3.0790    1.0313    0.0000 HC        1 <0>         0.0000
     32 H10         4.5080   -1.4438    0.0000 HC        1 <0>         0.0000
     33 H11         4.5080   -1.4438    0.0000 HC        1 <0>         0.0000
     34 H12         2.3645    1.4438    0.0000 HC        1 <0>         0.0000
     35 H13         2.3645    1.4438    0.0000 HC        1 <0>         0.0000
     36 H14         7.3659    1.0313    0.0000 HC        1 <0>         0.0000
     37 H15         7.3659    1.0313    0.0000 HC        1 <0>         0.0000
     38 H16         6.6515    1.4438    0.0000 HC        1 <0>         0.0000
     39 H17         6.6515    1.4438    0.0000 HC        1 <0>         0.0000
     40 H18         7.3659    0.2063    0.0000 HC        1 <0>         0.0000
     41 H19         7.3659    0.2063    0.0000 HC        1 <0>         0.0000
     42 H20         6.6515    2.2688    0.0000 HC        1 <0>         0.0000
     43 H21         6.6515    2.2688    0.0000 HC        1 <0>         0.0000
     44 H22         4.5080   -2.2688    0.0000 HA        1 <0>         0.0000
     45 H23         5.2224   -2.6813    0.0000 HA        1 <0>         0.0000
     46 H24         8.0804   -0.2063    0.0000 HA        1 <0>         0.0000
     47 H25         5.9370    2.6813    0.0000 HC        1 <0>         0.0000
     48 H26         5.9370    2.6813    0.0000 HC        1 <0>         0.0000
     49 H27         5.9370    2.6813    0.0000 HC        1 <0>         0.0000
     50 H28         5.9370   -2.2688    0.0000 HC        1 <0>         0.0000
     51 H29         5.9370   -2.2688    0.0000 HC        1 <0>         0.0000
     52 H30         8.0804   -1.0313    0.0000 HA        1 <0>         0.0000
     53 H31         7.3659   -1.4438    0.0000 HC        1 <0>         0.0000
     54 H32         7.3659   -1.4438    0.0000 HC        1 <0>         0.0000
     55 H33         6.6515   -2.6813    0.0000 HA        1 <0>         0.0000
     56 H34         7.3659   -2.2688    0.0000 HA        1 <0>         0.0000
@<TRIPOS>BOND
     1    1   16 1
     2    2   16 2
     3    3    4 1
     4    3    5 1
     5    4    6 1
     6    5    7 1
     7    6    8 1
     8    7   13 1
     9    8   16 1
    10    9   10 1
    11    9   11 1
    12   10   12 1
    13   11   15 1
    14   12   17 1
    15   13   14 2
    16   14   18 1
    17   15   19 2
    18   18   21 1
    19   19   20 1
    20   20   22 1
    21   21   22 2
    22    1   23 1
    23    3   24 1
    24    3   25 1
    25    4   26 1
    26    4   27 1
    27    5   28 1
    28    5   29 1
    29    6   30 1
    30    6   31 1
    31    7   32 1
    32    7   33 1
    33    8   34 1
    34    8   35 1
    35    9   36 1
    36    9   37 1
    37   10   38 1
    38   10   39 1
    39   11   40 1
    40   11   41 1
    41   12   42 1
    42   12   43 1
    43   13   44 1
    44   14   45 1
    45   15   46 1
    46   17   47 1
    47   17   48 1
    48   17   49 1
    49   18   50 1
    50   18   51 1
    51   19   52 1
    52   20   53 1
    53   20   54 1
    54   21   55 1
    55   22   56 1
@<TRIPOS>MOLECULE
*****
   52    51     0     0     0
SMALL
NO_CHARGES

 
@<TRIPOS>ATOM
      1 C1         12.8416  -10.9174    0.0000 CM        1 <0>         0.0000
      2 C2         13.6781  -10.9174    0.0000 CM        1 <0>         0.0000
      3 C3         12.0886  -11.3357    0.0000 CT        1 <0>         0.0000
      4 C4         14.3892  -11.3357    0.0000 CT        1 <0>         0.0000
      5 C5         11.3775  -10.9174    0.0000 CM        1 <0>         0.0000
      6 C6         15.1003  -10.9174    0.0000 CM        1 <0>         0.0000
      7 C7         10.5409  -10.9174    0.0000 CM        1 <0>         0.0000
      8 C8         15.9369  -10.9174    0.0000 CM        1 <0>         0.0000
      9 C9          9.8299  -11.3357    0.0000 CT        1 <0>         0.0000
     10 C10        16.6898  -11.3357    0.0000 CT        1 <0>         0.0000
     11 C11         9.0769  -10.9174    0.0000 CT        1 <0>         0.0000
     12 C12        17.4009  -10.9174    0.0000 CM        1 <0>         0.0000
     13 C13         8.3658  -11.3357    0.0000 CT        1 <0>         0.0000
     14 C14        18.2375  -10.9174    0.0000 CM        1 <0>         0.0000
     15 C15         7.6547  -10.9174    0.0000 C         1 <0>         0.0000
     16 C16        18.9486  -11.3357    0.0000 CT        1 <0>         0.0000
     17 O1          6.9018  -11.3357    0.0000 OH        1 <0>         0.0000
     18 O2          7.6547  -10.0808    0.0000 O         1 <0>         0.0000
     19 C17        19.7015  -10.9174    0.0000 CM        1 <0>         0.0000
     20 C18        20.5381  -10.9174    0.0000 CM        1 <0>         0.0000
     21 C19        21.2492  -11.3357    0.0000 CT        1 <0>         0.0000
     22 C20        21.9603  -10.9174    0.0000 CT        1 <0>         0.0000
     23 H1         12.8416  -10.9174    0.0000 HA        1 <0>         0.0000
     24 H2         13.6781  -10.9174    0.0000 HA        1 <0>         0.0000
     25 H3         12.0886  -11.3357    0.0000 HC        1 <0>         0.0000
     26 H4         12.0886  -11.3357    0.0000 HC        1 <0>         0.0000
     27 H5         14.3892  -11.3357    0.0000 HC        1 <0>         0.0000
     28 H6         14.3892  -11.3357    0.0000 HC        1 <0>         0.0000
     29 H7         11.3775  -10.9174    0.0000 HA        1 <0>         0.0000
     30 H8         15.1003  -10.9174    0.0000 HA        1 <0>         0.0000
     31 H9         10.5409  -10.9174    0.0000 HA        1 <0>         0.0000
     32 H10        15.9369  -10.9174    0.0000 HA        1 <0>         0.0000
     33 H11         9.8299  -11.3357    0.0000 HC        1 <0>         0.0000
     34 H12         9.8299  -11.3357    0.0000 HC        1 <0>         0.0000
     35 H13        16.6898  -11.3357    0.0000 HC        1 <0>         0.0000
     36 H14        16.6898  -11.3357    0.0000 HC        1 <0>         0.0000
     37 H15         9.0769  -10.9174    0.0000 HC        1 <0>         0.0000
     38 H16         9.0769  -10.9174    0.0000 HC        1 <0>         0.0000
     39 H17        17.4009  -10.9174    0.0000 HA        1 <0>         0.0000
     40 H18         8.3658  -11.3357    0.0000 HC        1 <0>         0.0000
     41 H19         8.3658  -11.3357    0.0000 HC        1 <0>         0.0000
     42 H20        18.2375  -10.9174    0.0000 HA        1 <0>         0.0000
     43 H21        18.9486  -11.3357    0.0000 HC        1 <0>         0.0000
     44 H22        18.9486  -11.3357    0.0000 HC        1 <0>         0.0000
     45 H23         6.9018  -11.3357    0.0000 HO        1 <0>         0.0000
     46 H24        19.7015  -10.9174    0.0000 HA        1 <0>         0.0000
     47 H25        20.5381  -10.9174    0.0000 HA        1 <0>         0.0000
     48 H26        21.2492  -11.3357    0.0000 HC        1 <0>         0.0000
     49 H27        21.2492  -11.3357    0.0000 HC        1 <0>         0.0000
     50 H28        21.9603  -10.9174    0.0000 HC        1 <0>         0.0000
     51 H29        21.9603  -10.9174    0.0000 HC        1 <0>         0.0000
     52 H30        21.9603  -10.9174    0.0000 HC        1 <0>         0.0000
@<TRIPOS>BOND
     1    1    2 2
     2    1    3 1
     3    2    4 1
     4    3    5 1
     5    4    6 1
     6    5    7 2
     7    6    8 2
     8    7    9 1
     9    8   10 1
    10    9   11 1
    11   10   12 1
    12   11   13 1
    13   12   14 2
    14   13   15 1
    15   14   16 1
    16   15   17 1
    17   15   18 2
    18   16   19 1
    19   19   20 2
    20   20   21 1
    21   21   22 1
    22    1   23 1
    23    2   24 1
    24    3   25 1
    25    3   26 1
    26    4   27 1
    27    4   28 1
    28    5   29 1
    29    6   30 1
    30    7   31 1
    31    8   32 1
    32    9   33 1
    33    9   34 1
    34   10   35 1
    35   10   36 1
    36   11   37 1
    37   11   38 1
    38   12   39 1
    39   13   40 1
    40   13   41 1
    41   14   42 1
    42   16   43 1
    43   16   44 1
    44   17   45 1
    45   19   46 1
    46   20   47 1
    47   21   48 1
    48   21   49 1
    49   22   50 1
    50   22   51 1
    51   22   52 1
@<TRIPOS>MOLECULE
*****
   51    51     0     0     0
SMALL
NO_CHARGES

@<TRIPOS>ATOM
      1 C1          0.0000    0.8250    0.0000 CT        1 <0>         0.0000
      2 C2          0.7145    0.4125    0.0000 CM        1 <0>         0.0000
      3 C3          0.7145   -0.4125    0.0000 CM        1 <0>         0.0000
      4 C4          0.0000   -0.8250    0.0000 CT        1 <0>         0.0000
      5 C5         -0.7145   -0.4125    0.0000 CT        1 <0>         0.0000
      6 C6         -0.7145    0.4125    0.0000 CT        1 <0>         0.0000
      7 C7          7.1447    0.8249    0.0000 CT        1 <0>         0.0000
      8 C8          6.4303    0.4124    0.0000 CM        1 <0>         0.0000
      9 C9          5.7158    0.8249    0.0000 CM        1 <0>         0.0000
     10 C10         5.0013    0.4124    0.0000 CM        1 <0>         0.0000
     11 C11         4.2868    0.8249    0.0000 CM        1 <0>         0.0000
     12 C12         3.5724    0.4124    0.0000 CM        1 <0>         0.0000
     13 C13         2.8579    0.8249    0.0000 CM        1 <0>         0.0000
     14 C14         2.1434    0.4125    0.0000 CM        1 <0>         0.0000
     15 C15         1.4290    0.8250    0.0000 CM        1 <0>         0.0000
     16 O1          7.8592    0.4124    0.0000 OH        1 <0>         0.0000
     17 C16         5.7158    1.6499    0.0000 CT        1 <0>         0.0000
     18 C17         2.8579    1.6499    0.0000 CT        1 <0>         0.0000
     19 C18         1.4290   -0.8250    0.0000 CT        1 <0>         0.0000
     20 C19         0.4125    1.5394    0.0000 CT        1 <0>         0.0000
     21 C20        -0.4125    1.5394    0.0000 CT        1 <0>         0.0000
     22 H1          0.0000   -0.8250    0.0000 HC        1 <0>         0.0000
     23 H2          0.0000   -0.8250    0.0000 HC        1 <0>         0.0000
     24 H3         -0.7145   -0.4125    0.0000 HC        1 <0>         0.0000
     25 H4         -0.7145   -0.4125    0.0000 HC        1 <0>         0.0000
     26 H5         -0.7145    0.4125    0.0000 HC        1 <0>         0.0000
     27 H6         -0.7145    0.4125    0.0000 HC        1 <0>         0.0000
     28 H7          7.1447    0.8249    0.0000 H1        1 <0>         0.0000
     29 H8          7.1447    0.8249    0.0000 H1        1 <0>         0.0000
     30 H9          6.4303    0.4124    0.0000 HA        1 <0>         0.0000
     31 H10         5.0013    0.4124    0.0000 HA        1 <0>         0.0000
     32 H11         4.2868    0.8249    0.0000 HA        1 <0>         0.0000
     33 H12         3.5724    0.4124    0.0000 HA        1 <0>         0.0000
     34 H13         2.1434    0.4125    0.0000 HA        1 <0>         0.0000
     35 H14         1.4290    0.8250    0.0000 HA        1 <0>         0.0000
     36 H15         7.8592    0.4124    0.0000 HO        1 <0>         0.0000
     37 H16         5.7158    1.6499    0.0000 HC        1 <0>         0.0000
     38 H17         5.7158    1.6499    0.0000 HC        1 <0>         0.0000
     39 H18         5.7158    1.6499    0.0000 HC        1 <0>         0.0000
     40 H19         2.8579    1.6499    0.0000 HC        1 <0>         0.0000
     41 H20         2.8579    1.6499    0.0000 HC        1 <0>         0.0000
     42 H21         2.8579    1.6499    0.0000 HC        1 <0>         0.0000
     43 H22         1.4290   -0.8250    0.0000 HC        1 <0>         0.0000
     44 H23         1.4290   -0.8250    0.0000 HC        1 <0>         0.0000
     45 H24         1.4290   -0.8250    0.0000 HC        1 <0>         0.0000
     46 H25         0.4125    1.5394    0.0000 HC        1 <0>         0.0000
     47 H26         0.4125    1.5394    0.0000 HC        1 <0>         0.0000
     48 H27         0.4125    1.5394    0.0000 HC        1 <0>         0.0000
     49 H28        -0.4125    1.5394    0.0000 HC        1 <0>         0.0000
     50 H29        -0.4125    1.5394    0.0000 HC        1 <0>         0.0000
     51 H30        -0.4125    1.5394    0.0000 HC        1 <0>         0.0000
@<TRIPOS>BOND
     1    1   20 1
     2    1   21 1
     3    1    2 1
     4    2   15 1
     5    2    3 2
     6    3   19 1
     7    3    4 1
     8    4    5 1
     9    5    6 1
    10    1    6 1
    11    7    8 1
    12    7   16 1
    13    8    9 2
    14    9   10 1
    15    9   17 1
    16   10   11 2
    17   11   12 1
    18   12   13 2
    19   13   14 1
    20   13   18 1
    21   14   15 2
    22    4   22 1
    23    4   23 1
    24    5   24 1
    25    5   25 1
    26    6   26 1
    27    6   27 1
    28    7   28 1
    29    7   29 1
    30    8   30 1
    31   10   31 1
    32   11   32 1
    33   12   33 1
    34   14   34 1
    35   15   35 1
    36   16   36 1
    37   17   37 1
    38   17   38 1
    39   17   39 1
    40   18   40 1
    41   18   41 1
    42   18   42 1
    43   19   43 1
    44   19   44 1
    45   19   45 1
    46   20   46 1
    47   20   47 1
    48   20   48 1
    49   21   49 1
    50   21   50 1
    51   21   51 1
@<TRIPOS>MOLECULE
163
   81    82     0     0     0
SMALL
NO_CHARGES

@<TRIPOS>ATOM
      1 O1          4.9740   -2.3009    0.0000 OS        1 <0>         0.0000
      2 O2          2.0930   -0.6223    0.0000 OH        1 <0>         0.0000
      3 C1          5.7215   -1.8770    0.0000 CT        1 <0>         0.0000
      4 C2          6.5465   -1.8801    0.0000 CT        1 <0>         0.0000
      5 C3          5.7215   -1.0177    0.0000 CT        1 <0>         0.0000
      6 C4          6.9617   -1.1673    0.0000 CT        1 <0>         0.0000
      7 C5          8.2021   -0.4576    0.0000 CT        1 <0>         0.0000
      8 C6          7.7867   -1.1705    0.0000 CT        1 <0>         0.0000
      9 C7          4.9740   -0.5937    0.0000 CT        1 <0>         0.0000
     10 C8          9.0271   -0.4608    0.0000 CT        1 <0>         0.0000
     11 C9          6.1313   -2.5930    0.0000 CT        1 <0>         0.0000
     12 C10         4.2365   -1.0348    0.0000 CA        1 <0>         0.0000
     13 C11         9.4423    0.2521    0.0000 CT        1 <0>         0.0000
     14 C12         4.2365   -1.8598    0.0000 CA        1 <0>         0.0000
     15 C13        10.2673    0.2490    0.0000 CT        1 <0>         0.0000
     16 C14        10.6826    0.9619    0.0000 CT        1 <0>         0.0000
     17 C15         7.7923    0.2585    0.0000 CT        1 <0>         0.0000
     18 C16        11.5076    0.9587    0.0000 CT        1 <0>         0.0000
     19 C17         3.5220   -0.6223    0.0000 CA        1 <0>         0.0000
     20 C18         3.5220   -2.2723    0.0000 CA        1 <0>         0.0000
     21 C19        11.9229    1.6716    0.0000 CT        1 <0>         0.0000
     22 C20         2.8075   -1.8598    0.0000 CA        1 <0>         0.0000
     23 C21        10.2729    1.6779    0.0000 CT        1 <0>         0.0000
     24 C22         2.8075   -1.0348    0.0000 CA        1 <0>         0.0000
     25 C23        12.7478    1.6683    0.0000 CT        1 <0>         0.0000
     26 C24        13.1631    2.3812    0.0000 CT        1 <0>         0.0000
     27 C25         3.5220    0.2027    0.0000 CT        1 <0>         0.0000
     28 C26         3.5220   -3.0974    0.0000 CT        1 <0>         0.0000
     29 C27         2.0930   -2.2723    0.0000 CT        1 <0>         0.0000
     30 C28        12.7533    3.0974    0.0000 CT        1 <0>         0.0000
     31 C29        13.9881    2.3781    0.0000 CT        1 <0>         0.0000
     32 H1          2.0930   -0.6223    0.0000 HO        1 <0>         0.0000
     33 H2          6.5465   -1.8801    0.0000 HC        1 <0>         0.0000
     34 H3          6.5465   -1.8801    0.0000 HC        1 <0>         0.0000
     35 H4          5.7215   -1.0177    0.0000 HC        1 <0>         0.0000
     36 H5          5.7215   -1.0177    0.0000 HC        1 <0>         0.0000
     37 H6          6.9617   -1.1673    0.0000 HC        1 <0>         0.0000
     38 H7          6.9617   -1.1673    0.0000 HC        1 <0>         0.0000
     39 H8          8.2021   -0.4576    0.0000 HC        1 <0>         0.0000
     40 H9          7.7867   -1.1705    0.0000 HC        1 <0>         0.0000
     41 H10         7.7867   -1.1705    0.0000 HC        1 <0>         0.0000
     42 H11         4.9740   -0.5937    0.0000 HC        1 <0>         0.0000
     43 H12         4.9740   -0.5937    0.0000 HC        1 <0>         0.0000
     44 H13         9.0271   -0.4608    0.0000 HC        1 <0>         0.0000
     45 H14         9.0271   -0.4608    0.0000 HC        1 <0>         0.0000
     46 H15         6.1313   -2.5930    0.0000 HC        1 <0>         0.0000
     47 H16         6.1313   -2.5930    0.0000 HC        1 <0>         0.0000
     48 H17         6.1313   -2.5930    0.0000 HC        1 <0>         0.0000
     49 H18         9.4423    0.2521    0.0000 HC        1 <0>         0.0000
     50 H19         9.4423    0.2521    0.0000 HC        1 <0>         0.0000
     51 H20        10.2673    0.2490    0.0000 HC        1 <0>         0.0000
     52 H21        10.2673    0.2490    0.0000 HC        1 <0>         0.0000
     53 H22        10.6826    0.9619    0.0000 HC        1 <0>         0.0000
     54 H23         7.7923    0.2585    0.0000 HC        1 <0>         0.0000
     55 H24         7.7923    0.2585    0.0000 HC        1 <0>         0.0000
     56 H25         7.7923    0.2585    0.0000 HC        1 <0>         0.0000
     57 H26        11.5076    0.9587    0.0000 HC        1 <0>         0.0000
     58 H27        11.5076    0.9587    0.0000 HC        1 <0>         0.0000
     59 H28        11.9229    1.6716    0.0000 HC        1 <0>         0.0000
     60 H29        11.9229    1.6716    0.0000 HC        1 <0>         0.0000
     61 H30        10.2729    1.6779    0.0000 HC        1 <0>         0.0000
     62 H31        10.2729    1.6779    0.0000 HC        1 <0>         0.0000
     63 H32        10.2729    1.6779    0.0000 HC        1 <0>         0.0000
     64 H33        12.7478    1.6683    0.0000 HC        1 <0>         0.0000
     65 H34        12.7478    1.6683    0.0000 HC        1 <0>         0.0000
     66 H35        13.1631    2.3812    0.0000 HC        1 <0>         0.0000
     67 H36         3.5220    0.2027    0.0000 HC        1 <0>         0.0000
     68 H37         3.5220    0.2027    0.0000 HC        1 <0>         0.0000
     69 H38         3.5220    0.2027    0.0000 HC        1 <0>         0.0000
     70 H39         3.5220   -3.0974    0.0000 HC        1 <0>         0.0000
     71 H40         3.5220   -3.0974    0.0000 HC        1 <0>         0.0000
     72 H41         3.5220   -3.0974    0.0000 HC        1 <0>         0.0000
     73 H42         2.0930   -2.2723    0.0000 HC        1 <0>         0.0000
     74 H43         2.0930   -2.2723    0.0000 HC        1 <0>         0.0000
     75 H44         2.0930   -2.2723    0.0000 HC        1 <0>         0.0000
     76 H45        12.7533    3.0974    0.0000 HC        1 <0>         0.0000
     77 H46        12.7533    3.0974    0.0000 HC        1 <0>         0.0000
     78 H47        12.7533    3.0974    0.0000 HC        1 <0>         0.0000
     79 H48        13.9881    2.3781    0.0000 HC        1 <0>         0.0000
     80 H49        13.9881    2.3781    0.0000 HC        1 <0>         0.0000
     81 H50        13.9881    2.3781    0.0000 HC        1 <0>         0.0000
@<TRIPOS>BOND
     1    1    3 1
     2    1   14 1
     3    2   24 1
     4    3    4 1
     5    3    5 1
     6    3   11 1
     7    4    6 1
     8    5    9 1
     9    6    8 1
    10    7    8 1
    11    7   10 1
    12    7   17 1
    13    9   12 1
    14   10   13 1
    15   12   14 ar
    16   12   19 ar
    17   13   15 1
    18   14   20 ar
    19   15   16 1
    20   16   18 1
    21   16   23 1
    22   18   21 1
    23   19   24 ar
    24   19   27 1
    25   20   22 ar
    26   20   28 1
    27   21   25 1
    28   22   24 ar
    29   22   29 1
    30   25   26 1
    31   26   30 1
    32   26   31 1
    33    2   32 1
    34    4   33 1
    35    4   34 1
    36    5   35 1
    37    5   36 1
    38    6   37 1
    39    6   38 1
    40    7   39 1
    41    8   40 1
    42    8   41 1
    43    9   42 1
    44    9   43 1
    45   10   44 1
    46   10   45 1
    47   11   46 1
    48   11   47 1
    49   11   48 1
    50   13   49 1
    51   13   50 1
    52   15   51 1
    53   15   52 1
    54   16   53 1
    55   17   54 1
    56   17   55 1
    57   17   56 1
    58   18   57 1
    59   18   58 1
    60   21   59 1
    61   21   60 1
    62   23   61 1
    63   23   62 1
    64   23   63 1
    65   25   64 1
    66   25   65 1
    67   26   66 1
    68   27   67 1
    69   27   68 1
    70   27   69 1
    71   28   70 1
    72   28   71 1
    73   28   72 1
    74   29   73 1
    75   29   74 1
    76   29   75 1
    77   30   76 1
    78   30   77 1
    79   30   78 1
    80   31   79 1
    81   31   80 1
    82   31   81 1
@<TRIPOS>MOLECULE
*****
   72    74     0     0     0
SMALL
NO_CHARGES

@<TRIPOS>ATOM
      1 C1         -1.0890    1.2765    0.0000 CT        1 <0>         0.0000
      2 C2         -1.0890   -0.3735    0.0000 CM        1 <0>         0.0000
      3 C3          0.4101   -0.2159    0.0000 CT        1 <0>         0.0000
      4 C4          0.8950    0.4515    0.0000 CT        1 <0>         0.0000
      5 C5         -1.8035    0.8640    0.0000 CT        1 <0>         0.0000
      6 C6         -1.0890   -1.1985    0.0000 CM        1 <0>         0.0000
      7 C7         -1.8035    0.0390    0.0000 CT        1 <0>         0.0000
      8 C8         -1.8035   -1.6110    0.0000 CM        1 <0>         0.0000
      9 C9         -1.8035   -2.4360    0.0000 CM        1 <0>         0.0000
     10 C10        -1.0890   -2.8485    0.0000 CM        1 <0>         0.0000
     11 C11        -2.5179   -2.8485    0.0000 CT        1 <0>         0.0000
     12 C12        -1.0890   -3.6735    0.0000 CT        1 <0>         0.0000
     13 C13        -0.3745   -2.4360    0.0000 CM        1 <0>         0.0000
     14 C14        -2.5179   -3.6735    0.0000 CT        1 <0>         0.0000
     15 C15        -1.8035   -4.0860    0.0000 CT        1 <0>         0.0000
     16 O1         -3.2324   -4.0860    0.0000 OH        1 <0>         0.0000
     17 C16        -0.3044    2.3565    0.0000 CT        1 <0>         0.0000
     18 C17         0.4101    1.9440    0.0000 CT        1 <0>         0.0000
     19 C18         1.1246    2.3565    0.0000 CT        1 <0>         0.0000
     20 C19         1.8390    1.9440    0.0000 CT        1 <0>         0.0000
     21 C20         3.9825    2.3565    0.0000 CT        1 <0>         0.0000
     22 C21         3.2680    1.9440    0.0000 CT        1 <0>         0.0000
     23 C22         3.2680    1.1190    0.0000 CT        1 <0>         0.0000
     24 C23         2.5535    2.3565    0.0000 CT        1 <0>         0.0000
     25 C24         0.4101    1.1190    0.0000 CT        1 <0>         0.0000
     26 H1          1.1246    1.5315    0.0000 HC        1 <0>         0.0000
     27 C25        -0.3745    0.0390    0.0000 CT        1 <0>         0.0000
     28 H2         -0.3745   -0.7860    0.0000 HC        1 <0>         0.0000
     29 C26        -0.3745    0.8640    0.0000 CT        1 <0>         0.0000
     30 C27        -0.3745    1.6890    0.0000 CT        1 <0>         0.0000
     31 H3         -1.0890    1.2765    0.0000 HC        1 <0>         0.0000
     32 H4         -1.0890    1.2765    0.0000 HC        1 <0>         0.0000
     33 H5          0.4101   -0.2159    0.0000 HC        1 <0>         0.0000
     34 H6          0.4101   -0.2159    0.0000 HC        1 <0>         0.0000
     35 H7          0.8950    0.4515    0.0000 HC        1 <0>         0.0000
     36 H8          0.8950    0.4515    0.0000 HC        1 <0>         0.0000
     37 H9         -1.8035    0.8640    0.0000 HC        1 <0>         0.0000
     38 H10        -1.8035    0.8640    0.0000 HC        1 <0>         0.0000
     39 H11        -1.0890   -1.1985    0.0000 HA        1 <0>         0.0000
     40 H12        -1.8035    0.0390    0.0000 HC        1 <0>         0.0000
     41 H13        -1.8035    0.0390    0.0000 HC        1 <0>         0.0000
     42 H14        -1.8035   -1.6110    0.0000 HA        1 <0>         0.0000
     43 H15        -2.5179   -2.8485    0.0000 HC        1 <0>         0.0000
     44 H16        -2.5179   -2.8485    0.0000 HC        1 <0>         0.0000
     45 H17        -1.0890   -3.6735    0.0000 HC        1 <0>         0.0000
     46 H18        -1.0890   -3.6735    0.0000 HC        1 <0>         0.0000
     47 H19        -0.3745   -2.4360    0.0000 HA        1 <0>         0.0000
     48 H20        -0.3745   -2.4360    0.0000 HA        1 <0>         0.0000
     49 H21        -2.5179   -3.6735    0.0000 H1        1 <0>         0.0000
     50 H22        -1.8035   -4.0860    0.0000 HC        1 <0>         0.0000
     51 H23        -1.8035   -4.0860    0.0000 HC        1 <0>         0.0000
     52 H24        -3.2324   -4.0860    0.0000 HO        1 <0>         0.0000
     53 H25        -0.3044    2.3565    0.0000 HC        1 <0>         0.0000
     54 H26        -0.3044    2.3565    0.0000 HC        1 <0>         0.0000
     55 H27        -0.3044    2.3565    0.0000 HC        1 <0>         0.0000
     56 H28         0.4101    1.9440    0.0000 HC        1 <0>         0.0000
     57 H29         1.1246    2.3565    0.0000 HC        1 <0>         0.0000
     58 H30         1.1246    2.3565    0.0000 HC        1 <0>         0.0000
     59 H31         1.8390    1.9440    0.0000 HC        1 <0>         0.0000
     60 H32         1.8390    1.9440    0.0000 HC        1 <0>         0.0000
     61 H33         3.9825    2.3565    0.0000 HC        1 <0>         0.0000
     62 H34         3.9825    2.3565    0.0000 HC        1 <0>         0.0000
     63 H35         3.9825    2.3565    0.0000 HC        1 <0>         0.0000
     64 H36         3.2680    1.9440    0.0000 HC        1 <0>         0.0000
     65 H37         3.2680    1.1190    0.0000 HC        1 <0>         0.0000
     66 H38         3.2680    1.1190    0.0000 HC        1 <0>         0.0000
     67 H39         3.2680    1.1190    0.0000 HC        1 <0>         0.0000
     68 H40         2.5535    2.3565    0.0000 HC        1 <0>         0.0000
     69 H41         2.5535    2.3565    0.0000 HC        1 <0>         0.0000
     70 H42        -0.3745    1.6890    0.0000 HC        1 <0>         0.0000
     71 H43        -0.3745    1.6890    0.0000 HC        1 <0>         0.0000
     72 H44        -0.3745    1.6890    0.0000 HC        1 <0>         0.0000
@<TRIPOS>BOND
     1   27   29 1
     2   25   29 1
     3    1   29 1
     4    2   27 1
     5    3   27 1
     6    4   25 1
     7    1    5 1
     8    2    6 2
     9    2    7 1
    10    6    8 1
    11    8    9 2
    12    9   10 1
    13    9   11 1
    14   10   12 1
    15   10   13 2
    16   11   14 1
    17   12   15 1
    18   14   16 1
    19    3    4 1
    20    5    7 1
    21   14   15 1
    22   18   25 1
    23   17   18 1
    24   18   19 1
    25   19   20 1
    26   20   24 1
    27   22   24 1
    28   21   22 1
    29   22   23 1
    30   25   26 1
    31   27   28 1
    32   29   30 1
    33    1   31 1
    34    1   32 1
    35    3   33 1
    36    3   34 1
    37    4   35 1
    38    4   36 1
    39    5   37 1
    40    5   38 1
    41    6   39 1
    42    7   40 1
    43    7   41 1
    44    8   42 1
    45   11   43 1
    46   11   44 1
    47   12   45 1
    48   12   46 1
    49   13   47 1
    50   13   48 1
    51   14   49 1
    52   15   50 1
    53   15   51 1
    54   16   52 1
    55   17   53 1
    56   17   54 1
    57   17   55 1
    58   18   56 1
    59   19   57 1
    60   19   58 1
    61   20   59 1
    62   20   60 1
    63   21   61 1
    64   21   62 1
    65   21   63 1
    66   22   64 1
    67   23   65 1
    68   23   66 1
    69   23   67 1
    70   24   68 1
    71   24   69 1
    72   30   70 1
    73   30   71 1
    74   30   72 1
@<TRIPOS>MOLECULE
170
   21    22     0     0     0
SMALL
NO_CHARGES

@<TRIPOS>ATOM
      1 O1          3.0786   -1.6498    0.0000 O         1 <0>         0.0000
      2 O2          3.0786    1.6498    0.0000 O         1 <0>         0.0000
      3 C1          3.7929   -0.4124    0.0000 CB        1 <0>         0.0000
      4 C2          3.7929    0.4124    0.0000 CB        1 <0>         0.0000
      5 C3          2.3641   -0.4124    0.0000 CA        1 <0>         0.0000
      6 C4          3.0786   -0.8249    0.0000 C         1 <0>         0.0000
      7 C5          3.0786    0.8249    0.0000 C         1 <0>         0.0000
      8 C6          2.3641    0.4124    0.0000 CA        1 <0>         0.0000
      9 C7          4.5303   -0.8535    0.0000 CA        1 <0>         0.0000
     10 C8          4.5303    0.8535    0.0000 CA        1 <0>         0.0000
     11 C9          1.6498   -0.8249    0.0000 CT        1 <0>         0.0000
     12 C10         5.2777   -0.4296    0.0000 CA        1 <0>         0.0000
     13 C11         5.2777    0.4296    0.0000 CA        1 <0>         0.0000
     14 H1          2.3641    0.4124    0.0000 HA        1 <0>         0.0000
     15 H2          4.5303   -0.8535    0.0000 HA        1 <0>         0.0000
     16 H3          4.5303    0.8535    0.0000 HA        1 <0>         0.0000
     17 H4          1.6498   -0.8249    0.0000 HC        1 <0>         0.0000
     18 H5          1.6498   -0.8249    0.0000 HC        1 <0>         0.0000
     19 H6          1.6498   -0.8249    0.0000 HC        1 <0>         0.0000
     20 H7          5.2777   -0.4296    0.0000 HA        1 <0>         0.0000
     21 H8          5.2777    0.4296    0.0000 HA        1 <0>         0.0000
@<TRIPOS>BOND
     1    1    6 2
     2    2    7 2
     3    3    4 ar
     4    3    6 1
     5    3    9 ar
     6    4    7 1
     7    4   10 ar
     8    5    6 1
     9    5    8 2
    10    5   11 1
    11    7    8 1
    12    9   12 ar
    13   10   13 ar
    14   12   13 ar
    15    8   14 1
    16    9   15 1
    17   10   16 1
    18   11   17 1
    19   11   18 1
    20   11   19 1
    21   12   20 1
    22   13   21 1
@<TRIPOS>MOLECULE
175
   66    67     0     0     0
SMALL
NO_CHARGES

@<TRIPOS>ATOM
      1 O1          3.0790    0.8556    0.0000 OS        1 <0>         0.0000
      2 O2          1.6500    3.3306    0.0000 OH        1 <0>         0.0000
      3 O3          4.5023   -0.8228    0.0000 OH        1 <0>         0.0000
      4 O4          1.6500    0.8556    0.0000 O         1 <0>         0.0000
      5 O5          5.2025   -2.0685    0.0000 OH        1 <0>         0.0000
      6 O6          7.3314   -3.3307    0.0000 OH        1 <0>         0.0000
      7 O7          5.9026   -3.3142    0.0000 O         1 <0>         0.0000
      8 C1          3.7935    2.0931    0.0000 CT        1 <0>         0.0000
      9 C2          4.5309    1.6521    0.0000 CT        1 <0>         0.0000
     10 C3          3.0790    1.6806    0.0000 CT        1 <0>         0.0000
     11 C4          5.2785    2.0760    0.0000 CT        1 <0>         0.0000
     12 C5          4.5214    0.8271    0.0000 CT        1 <0>         0.0000
     13 C6          3.7935    2.9181    0.0000 CM        1 <0>         0.0000
     14 C7          2.3645    2.0931    0.0000 CT        1 <0>         0.0000
     15 C8          2.3645    2.9181    0.0000 CT        1 <0>         0.0000
     16 C9          5.2785    2.9354    0.0000 CM        1 <0>         0.0000
     17 C10         5.2310    0.4064    0.0000 CT        1 <0>         0.0000
     18 C11         3.0790    3.3306    0.0000 CM        1 <0>         0.0000
     19 C12         4.5309    3.3593    0.0000 CM        1 <0>         0.0000
     20 C13         5.9913    1.6607    0.0000 CT        1 <0>         0.0000
     21 C14         5.2215   -0.4186    0.0000 CT        1 <0>         0.0000
     22 C15         5.9312   -0.8394    0.0000 CT        1 <0>         0.0000
     23 C16         2.3645    0.4431    0.0000 C         1 <0>         0.0000
     24 C17         5.9216   -1.6643    0.0000 CT        1 <0>         0.0000
     25 C18         2.3645   -0.3819    0.0000 CT        1 <0>         0.0000
     26 C19         6.6313   -2.0850    0.0000 CT        1 <0>         0.0000
     27 C20         1.6500   -0.7944    0.0000 CT        1 <0>         0.0000
     28 C21         3.0790   -0.7944    0.0000 CT        1 <0>         0.0000
     29 C22         1.6500   -1.6194    0.0000 CT        1 <0>         0.0000
     30 C23         6.6217   -2.9100    0.0000 C         1 <0>         0.0000
     31 H1          3.7883    1.4332    0.0000 HC        1 <0>         0.0000
     32 H2          1.6500    3.3306    0.0000 HO        1 <0>         0.0000
     33 H3          4.5023   -0.8228    0.0000 HO        1 <0>         0.0000
     34 H4          5.2025   -2.0685    0.0000 HO        1 <0>         0.0000
     35 H5          7.3314   -3.3307    0.0000 HO        1 <0>         0.0000
     36 H6          4.5309    1.6521    0.0000 HC        1 <0>         0.0000
     37 H7          3.0790    1.6806    0.0000 H1        1 <0>         0.0000
     38 H8          5.2785    2.0760    0.0000 HC        1 <0>         0.0000
     39 H9          4.5214    0.8271    0.0000 HC        1 <0>         0.0000
     40 H10         4.5214    0.8271    0.0000 HC        1 <0>         0.0000
     41 H11         2.3645    2.0931    0.0000 HC        1 <0>         0.0000
     42 H12         2.3645    2.0931    0.0000 HC        1 <0>         0.0000
     43 H13         2.3645    2.9181    0.0000 H1        1 <0>         0.0000
     44 H14         5.2785    2.9354    0.0000 HA        1 <0>         0.0000
     45 H15         5.2310    0.4064    0.0000 HC        1 <0>         0.0000
     46 H16         5.2310    0.4064    0.0000 HC        1 <0>         0.0000
     47 H17         3.0790    3.3306    0.0000 HA        1 <0>         0.0000
     48 H18         4.5309    3.3593    0.0000 HA        1 <0>         0.0000
     49 H19         5.9913    1.6607    0.0000 HC        1 <0>         0.0000
     50 H20         5.9913    1.6607    0.0000 HC        1 <0>         0.0000
     51 H21         5.9913    1.6607    0.0000 HC        1 <0>         0.0000
     52 H22         5.2215   -0.4186    0.0000 H1        1 <0>         0.0000
     53 H23         5.9312   -0.8394    0.0000 HC        1 <0>         0.0000
     54 H24         5.9312   -0.8394    0.0000 HC        1 <0>         0.0000
     55 H25         5.9216   -1.6643    0.0000 H1        1 <0>         0.0000
     56 H26         2.3645   -0.3819    0.0000 HC        1 <0>         0.0000
     57 H27         6.6313   -2.0850    0.0000 HC        1 <0>         0.0000
     58 H28         6.6313   -2.0850    0.0000 HC        1 <0>         0.0000
     59 H29         1.6500   -0.7944    0.0000 HC        1 <0>         0.0000
     60 H30         1.6500   -0.7944    0.0000 HC        1 <0>         0.0000
     61 H31         3.0790   -0.7944    0.0000 HC        1 <0>         0.0000
     62 H32         3.0790   -0.7944    0.0000 HC        1 <0>         0.0000
     63 H33         3.0790   -0.7944    0.0000 HC        1 <0>         0.0000
     64 H34         1.6500   -1.6194    0.0000 HC        1 <0>         0.0000
     65 H35         1.6500   -1.6194    0.0000 HC        1 <0>         0.0000
     66 H36         1.6500   -1.6194    0.0000 HC        1 <0>         0.0000
@<TRIPOS>BOND
     1    1   10 1
     2    1   23 1
     3    2   15 1
     4    3   21 1
     5    4   23 2
     6    5   24 1
     7    6   30 1
     8    7   30 2
     9    8    9 1
    10    8   10 1
    11    8   13 1
    12    8   31 1
    13    9   11 1
    14    9   12 1
    15   10   14 1
    16   11   16 1
    17   11   20 1
    18   12   17 1
    19   13   18 2
    20   13   19 1
    21   14   15 1
    22   15   18 1
    23   16   19 2
    24   17   21 1
    25   21   22 1
    26   22   24 1
    27   23   25 1
    28   24   26 1
    29   25   27 1
    30   25   28 1
    31   26   30 1
    32   27   29 1
    33    2   32 1
    34    3   33 1
    35    5   34 1
    36    6   35 1
    37    9   36 1
    38   10   37 1
    39   11   38 1
    40   12   39 1
    41   12   40 1
    42   14   41 1
    43   14   42 1
    44   15   43 1
    45   16   44 1
    46   17   45 1
    47   17   46 1
    48   18   47 1
    49   19   48 1
    50   20   49 1
    51   20   50 1
    52   20   51 1
    53   21   52 1
    54   22   53 1
    55   22   54 1
    56   24   55 1
    57   25   56 1
    58   26   57 1
    59   26   58 1
    60   27   59 1
    61   27   60 1
    62   28   61 1
    63   28   62 1
    64   28   63 1
    65   29   64 1
    66   29   65 1
    67   29   66 1
@<TRIPOS>MOLECULE
179
   44    45     0     0     0
SMALL
NO_CHARGES

@<TRIPOS>ATOM
      1 O1          7.0944   -3.5063    0.0000 OH        1 <0>         0.0000
      2 O2          3.5220    3.5063    0.0000 OH        1 <0>         0.0000
      3 O3          8.5234   -2.6813    0.0000 OH        1 <0>         0.0000
      4 O4          2.0930    2.6813    0.0000 OH        1 <0>         0.0000
      5 C1          5.6655   -0.2063    0.0000 CT        1 <0>         0.0000
      6 C2          4.9509    0.2063    0.0000 CT        1 <0>         0.0000
      7 C3          5.6655   -1.0313    0.0000 CT        1 <0>         0.0000
      8 C4          4.9509    1.0313    0.0000 CT        1 <0>         0.0000
      9 C5          6.3799    0.2063    0.0000 CT        1 <0>         0.0000
     10 C6          4.2365   -0.2063    0.0000 CT        1 <0>         0.0000
     11 C7          6.3799   -1.4438    0.0000 CA        1 <0>         0.0000
     12 C8          4.2365    1.4438    0.0000 CA        1 <0>         0.0000
     13 C9          6.3799   -2.2688    0.0000 CA        1 <0>         0.0000
     14 C10         4.2365    2.2688    0.0000 CA        1 <0>         0.0000
     15 C11         7.0944   -1.0313    0.0000 CA        1 <0>         0.0000
     16 C12         3.5220    1.0313    0.0000 CA        1 <0>         0.0000
     17 C13         7.0944   -2.6813    0.0000 CA        1 <0>         0.0000
     18 C14         3.5220    2.6813    0.0000 CA        1 <0>         0.0000
     19 C15         7.8089   -1.4438    0.0000 CA        1 <0>         0.0000
     20 C16         2.8075    1.4438    0.0000 CA        1 <0>         0.0000
     21 C17         7.8089   -2.2688    0.0000 CA        1 <0>         0.0000
     22 C18         2.8075    2.2688    0.0000 CA        1 <0>         0.0000
     23 H1          7.0944   -3.5063    0.0000 HO        1 <0>         0.0000
     24 H2          3.5220    3.5063    0.0000 HO        1 <0>         0.0000
     25 H3          8.5234   -2.6813    0.0000 HO        1 <0>         0.0000
     26 H4          2.0930    2.6813    0.0000 HO        1 <0>         0.0000
     27 H5          5.6655   -0.2063    0.0000 HC        1 <0>         0.0000
     28 H6          4.9509    0.2063    0.0000 HC        1 <0>         0.0000
     29 H7          5.6655   -1.0313    0.0000 HC        1 <0>         0.0000
     30 H8          5.6655   -1.0313    0.0000 HC        1 <0>         0.0000
     31 H9          4.9509    1.0313    0.0000 HC        1 <0>         0.0000
     32 H10         4.9509    1.0313    0.0000 HC        1 <0>         0.0000
     33 H11         6.3799    0.2063    0.0000 HC        1 <0>         0.0000
     34 H12         6.3799    0.2063    0.0000 HC        1 <0>         0.0000
     35 H13         6.3799    0.2063    0.0000 HC        1 <0>         0.0000
     36 H14         4.2365   -0.2063    0.0000 HC        1 <0>         0.0000
     37 H15         4.2365   -0.2063    0.0000 HC        1 <0>         0.0000
     38 H16         4.2365   -0.2063    0.0000 HC        1 <0>         0.0000
     39 H17         6.3799   -2.2688    0.0000 HA        1 <0>         0.0000
     40 H18         4.2365    2.2688    0.0000 HA        1 <0>         0.0000
     41 H19         7.0944   -1.0313    0.0000 HA        1 <0>         0.0000
     42 H20         3.5220    1.0313    0.0000 HA        1 <0>         0.0000
     43 H21         7.8089   -1.4438    0.0000 HA        1 <0>         0.0000
     44 H22         2.8075    1.4438    0.0000 HA        1 <0>         0.0000
@<TRIPOS>BOND
     1    1   17 1
     2    2   18 1
     3    3   21 1
     4    4   22 1
     5    5    6 1
     6    5    7 1
     7    5    9 1
     8    6    8 1
     9    6   10 1
    10    7   11 1
    11    8   12 1
    12   11   13 ar
    13   11   15 ar
    14   12   14 ar
    15   12   16 ar
    16   13   17 ar
    17   14   18 ar
    18   15   19 ar
    19   16   20 ar
    20   17   21 ar
    21   18   22 ar
    22   19   21 ar
    23   20   22 ar
    24    1   23 1
    25    2   24 1
    26    3   25 1
    27    4   26 1
    28    5   27 1
    29    6   28 1
    30    7   29 1
    31    7   30 1
    32    8   31 1
    33    8   32 1
    34    9   33 1
    35    9   34 1
    36    9   35 1
    37   10   36 1
    38   10   37 1
    39   10   38 1
    40   13   39 1
    41   14   40 1
    42   15   41 1
    43   16   42 1
    44   19   43 1
    45   20   44 1
@<TRIPOS>MOLECULE
210
   59    64     0     0     0
SMALL
NO_CHARGES

@<TRIPOS>ATOM
      1 O1          2.4469   -3.8851    0.0000 OS        1 <0>         0.0000
      2 O2          2.9958    3.7168    0.0000 OH        1 <0>         0.0000
      3 O3          4.3746    3.3417    0.0000 O         1 <0>         0.0000
      4 C1          4.0407   -3.4580    0.0000 CT        1 <0>         0.0000
      5 C2          4.1604   -3.8170    0.0000 CT        1 <0>         0.0000
      6 C3          5.4205   -3.4580    0.0000 CT        1 <0>         0.0000
      7 C4          4.7306   -2.2632    0.0000 CT        1 <0>         0.0000
      8 C5          3.3504   -3.8563    0.0000 CT        1 <0>         0.0000
      9 C6          4.7306   -3.7078    0.0000 CT        1 <0>         0.0000
     10 C7          4.0407   -2.6615    0.0000 CT        1 <0>         0.0000
     11 C8          4.9076   -4.2103    0.0000 CT        1 <0>         0.0000
     12 C9          4.1604   -2.9546    0.0000 CT        1 <0>         0.0000
     13 C10         5.4205   -2.6615    0.0000 CT        1 <0>         0.0000
     14 C11         3.4574   -2.8747    0.0000 CA        1 <0>         0.0000
     15 C12         2.6604   -3.0883    0.0000 CA        1 <0>         0.0000
     16 C13         3.6709   -2.0778    0.0000 CA        1 <0>         0.0000
     17 C14         3.0875   -1.4944    0.0000 CP        1 <0>         0.0000
     18 C15         2.0770   -2.5049    0.0000 CA        1 <0>         0.0000
     19 C16         2.2906   -1.7079    0.0000 CA        1 <0>         0.0000
     20 C17         3.3010   -0.6975    0.0000 CP        1 <0>         0.0000
     21 C18         1.6500   -4.0986    0.0000 CT        1 <0>         0.0000
     22 C19         2.7177   -0.1142    0.0000 CA        1 <0>         0.0000
     23 C20         4.0979   -0.4840    0.0000 CA        1 <0>         0.0000
     24 C21         2.9312    0.6828    0.0000 CB        1 <0>         0.0000
     25 C22         4.3114    0.3129    0.0000 CA        1 <0>         0.0000
     26 C23         3.7280    0.8963    0.0000 CB        1 <0>         0.0000
     27 C24         2.3142    1.2810    0.0000 CA        1 <0>         0.0000
     28 C25         3.9633    1.7228    0.0000 CA        1 <0>         0.0000
     29 C26         2.5302    2.1127    0.0000 CA        1 <0>         0.0000
     30 C27         3.3603    2.3351    0.0000 CA        1 <0>         0.0000
     31 C28         3.5769    3.1312    0.0000 C         1 <0>         0.0000
     32 H1          2.9958    3.7168    0.0000 HO        1 <0>         0.0000
     33 H2          4.1604   -3.8170    0.0000 HC        1 <0>         0.0000
     34 H3          5.4205   -3.4580    0.0000 HC        1 <0>         0.0000
     35 H4          4.7306   -2.2632    0.0000 HC        1 <0>         0.0000
     36 H5          3.3504   -3.8563    0.0000 HC        1 <0>         0.0000
     37 H6          3.3504   -3.8563    0.0000 HC        1 <0>         0.0000
     38 H7          4.7306   -3.7078    0.0000 HC        1 <0>         0.0000
     39 H8          4.7306   -3.7078    0.0000 HC        1 <0>         0.0000
     40 H9          4.0407   -2.6615    0.0000 HC        1 <0>         0.0000
     41 H10         4.0407   -2.6615    0.0000 HC        1 <0>         0.0000
     42 H11         4.9076   -4.2103    0.0000 HC        1 <0>         0.0000
     43 H12         4.9076   -4.2103    0.0000 HC        1 <0>         0.0000
     44 H13         4.1604   -2.9546    0.0000 HC        1 <0>         0.0000
     45 H14         4.1604   -2.9546    0.0000 HC        1 <0>         0.0000
     46 H15         5.4205   -2.6615    0.0000 HC        1 <0>         0.0000
     47 H16         5.4205   -2.6615    0.0000 HC        1 <0>         0.0000
     48 H17         3.6709   -2.0778    0.0000 HA        1 <0>         0.0000
     49 H18         2.0770   -2.5049    0.0000 HA        1 <0>         0.0000
     50 H19         2.2906   -1.7079    0.0000 HA        1 <0>         0.0000
     51 H20         1.6500   -4.0986    0.0000 H1        1 <0>         0.0000
     52 H21         1.6500   -4.0986    0.0000 H1        1 <0>         0.0000
     53 H22         1.6500   -4.0986    0.0000 H1        1 <0>         0.0000
     54 H23         2.7177   -0.1142    0.0000 HA        1 <0>         0.0000
     55 H24         4.0979   -0.4840    0.0000 HA        1 <0>         0.0000
     56 H25         4.3114    0.3129    0.0000 HA        1 <0>         0.0000
     57 H26         2.3142    1.2810    0.0000 HA        1 <0>         0.0000
     58 H27         3.9633    1.7228    0.0000 HA        1 <0>         0.0000
     59 H28         2.5302    2.1127    0.0000 HA        1 <0>         0.0000
@<TRIPOS>BOND
     1    1   15 1
     2    1   21 1
     3    2   31 1
     4    3   31 2
     5    4    8 1
     6    4    9 1
     7    4   10 1
     8    4   14 1
     9    5    8 1
    10    5   11 1
    11    5   12 1
    12    6    9 1
    13    6   11 1
    14    6   13 1
    15    7   10 1
    16    7   12 1
    17    7   13 1
    18   14   15 ar
    19   14   16 ar
    20   15   18 ar
    21   16   17 ar
    22   17   19 ar
    23   17   20 1
    24   18   19 ar
    25   20   22 ar
    26   20   23 ar
    27   22   24 ar
    28   23   25 ar
    29   24   26 ar
    30   24   27 ar
    31   25   26 ar
    32   26   28 ar
    33   27   29 ar
    34   28   30 ar
    35   29   30 ar
    36   30   31 1
    37    2   32 1
    38    5   33 1
    39    6   34 1
    40    7   35 1
    41    8   36 1
    42    8   37 1
    43    9   38 1
    44    9   39 1
    45   10   40 1
    46   10   41 1
    47   11   42 1
    48   11   43 1
    49   12   44 1
    50   12   45 1
    51   13   46 1
    52   13   47 1
    53   16   48 1
    54   18   49 1
    55   19   50 1
    56   21   51 1
    57   21   52 1
    58   21   53 1
    59   22   54 1
    60   23   55 1
    61   25   56 1
    62   27   57 1
    63   28   58 1
    64   29   59 1
@<TRIPOS>MOLECULE
227
   65    67     0     0     0
SMALL
NO_CHARGES

@<TRIPOS>ATOM
      1 O1          3.0790    0.4577    0.0000 OS        1 <0>         0.0000
      2 O2          5.9312   -1.2373    0.0000 OS        1 <0>         0.0000
      3 O3          3.7736   -2.4499    0.0000 OH        1 <0>         0.0000
      4 O4          1.6500    0.4577    0.0000 O         1 <0>         0.0000
      5 O5          6.6313   -2.4829    0.0000 O         1 <0>         0.0000
      6 C1          3.7935    1.6952    0.0000 CT        1 <0>         0.0000
      7 C2          4.5309    1.2542    0.0000 CT        1 <0>         0.0000
      8 C3          3.0790    1.2827    0.0000 CT        1 <0>         0.0000
      9 C4          5.2785    1.6781    0.0000 CT        1 <0>         0.0000
     10 C5          3.7935    2.5202    0.0000 CM        1 <0>         0.0000
     11 C6          4.5215    0.4292    0.0000 CT        1 <0>         0.0000
     12 C7          2.3645    1.6952    0.0000 CT        1 <0>         0.0000
     13 C8          2.3645    2.5202    0.0000 CT        1 <0>         0.0000
     14 C9          3.0790    2.9327    0.0000 CM        1 <0>         0.0000
     15 C10         5.2310    0.0084    0.0000 CT        1 <0>         0.0000
     16 C11         5.2785    2.5374    0.0000 CM        1 <0>         0.0000
     17 C12         4.5309    2.9614    0.0000 CM        1 <0>         0.0000
     18 C13         5.9914    1.2628    0.0000 CT        1 <0>         0.0000
     19 C14         5.2216   -0.8165    0.0000 CT        1 <0>         0.0000
     20 C15         1.6500    2.9327    0.0000 CT        1 <0>         0.0000
     21 C16         4.5023   -1.2207    0.0000 CT        1 <0>         0.0000
     22 C17         4.4928   -2.0457    0.0000 CT        1 <0>         0.0000
     23 C18         2.3645    0.0452    0.0000 C         1 <0>         0.0000
     24 C19         5.2025   -2.4664    0.0000 CT        1 <0>         0.0000
     25 C20         2.3645   -0.7798    0.0000 CT        1 <0>         0.0000
     26 C21         5.9217   -2.0622    0.0000 C         1 <0>         0.0000
     27 C22         1.6500   -1.1923    0.0000 CT        1 <0>         0.0000
     28 C23         3.0790   -1.1923    0.0000 CT        1 <0>         0.0000
     29 C24         1.6500   -2.0173    0.0000 CT        1 <0>         0.0000
     30 H1          3.7884    1.0352    0.0000 HC        1 <0>         0.0000
     31 H2          3.7736   -2.4499    0.0000 HO        1 <0>         0.0000
     32 H3          4.5309    1.2542    0.0000 HC        1 <0>         0.0000
     33 H4          3.0790    1.2827    0.0000 H1        1 <0>         0.0000
     34 H5          5.2785    1.6781    0.0000 HC        1 <0>         0.0000
     35 H6          4.5215    0.4292    0.0000 HC        1 <0>         0.0000
     36 H7          4.5215    0.4292    0.0000 HC        1 <0>         0.0000
     37 H8          2.3645    1.6952    0.0000 HC        1 <0>         0.0000
     38 H9          2.3645    1.6952    0.0000 HC        1 <0>         0.0000
     39 H10         2.3645    2.5202    0.0000 HC        1 <0>         0.0000
     40 H11         3.0790    2.9327    0.0000 HA        1 <0>         0.0000
     41 H12         5.2310    0.0084    0.0000 HC        1 <0>         0.0000
     42 H13         5.2310    0.0084    0.0000 HC        1 <0>         0.0000
     43 H14         5.2785    2.5374    0.0000 HA        1 <0>         0.0000
     44 H15         4.5309    2.9614    0.0000 HA        1 <0>         0.0000
     45 H16         5.9914    1.2628    0.0000 HC        1 <0>         0.0000
     46 H17         5.9914    1.2628    0.0000 HC        1 <0>         0.0000
     47 H18         5.9914    1.2628    0.0000 HC        1 <0>         0.0000
     48 H19         5.2216   -0.8165    0.0000 H1        1 <0>         0.0000
     49 H20         1.6500    2.9327    0.0000 HC        1 <0>         0.0000
     50 H21         1.6500    2.9327    0.0000 HC        1 <0>         0.0000
     51 H22         1.6500    2.9327    0.0000 HC        1 <0>         0.0000
     52 H23         4.5023   -1.2207    0.0000 HC        1 <0>         0.0000
     53 H24         4.5023   -1.2207    0.0000 HC        1 <0>         0.0000
     54 H25         4.4928   -2.0457    0.0000 H1        1 <0>         0.0000
     55 H26         5.2025   -2.4664    0.0000 HC        1 <0>         0.0000
     56 H27         5.2025   -2.4664    0.0000 HC        1 <0>         0.0000
     57 H28         2.3645   -0.7798    0.0000 HC        1 <0>         0.0000
     58 H29         1.6500   -1.1923    0.0000 HC        1 <0>         0.0000
     59 H30         1.6500   -1.1923    0.0000 HC        1 <0>         0.0000
     60 H31         3.0790   -1.1923    0.0000 HC        1 <0>         0.0000
     61 H32         3.0790   -1.1923    0.0000 HC        1 <0>         0.0000
     62 H33         3.0790   -1.1923    0.0000 HC        1 <0>         0.0000
     63 H34         1.6500   -2.0173    0.0000 HC        1 <0>         0.0000
     64 H35         1.6500   -2.0173    0.0000 HC        1 <0>         0.0000
     65 H36         1.6500   -2.0173    0.0000 HC        1 <0>         0.0000
@<TRIPOS>BOND
     1    1    8 1
     2    1   23 1
     3    2   19 1
     4    2   26 1
     5    3   22 1
     6    4   23 2
     7    5   26 2
     8    6    7 1
     9    6    8 1
    10    6   10 1
    11    6   30 1
    12    7    9 1
    13    7   11 1
    14    8   12 1
    15    9   16 1
    16    9   18 1
    17   10   14 2
    18   10   17 1
    19   11   15 1
    20   12   13 1
    21   13   14 1
    22   13   20 1
    23   15   19 1
    24   16   17 2
    25   19   21 1
    26   21   22 1
    27   22   24 1
    28   23   25 1
    29   24   26 1
    30   25   27 1
    31   25   28 1
    32   27   29 1
    33    3   31 1
    34    7   32 1
    35    8   33 1
    36    9   34 1
    37   11   35 1
    38   11   36 1
    39   12   37 1
    40   12   38 1
    41   13   39 1
    42   14   40 1
    43   15   41 1
    44   15   42 1
    45   16   43 1
    46   17   44 1
    47   18   45 1
    48   18   46 1
    49   18   47 1
    50   19   48 1
    51   20   49 1
    52   20   50 1
    53   20   51 1
    54   21   52 1
    55   21   53 1
    56   22   54 1
    57   24   55 1
    58   24   56 1
    59   25   57 1
    60   27   58 1
    61   27   59 1
    62   28   60 1
    63   28   61 1
    64   28   62 1
    65   29   63 1
    66   29   64 1
    67   29   65 1
@<TRIPOS>MOLECULE
253
   57    60     0     0     0
SMALL
NO_CHARGES

@<TRIPOS>ATOM
      1 O1          3.9559    1.2662    0.0000 OH        1 <0>         0.0000
      2 O2          6.5852    2.5034    0.0000 O         1 <0>         0.0000
      3 O3          1.6500   -1.6644    0.0000 O         1 <0>         0.0000
      4 C1          6.0993    0.0287    0.0000 CT        1 <0>         0.0000
      5 C2          6.0993    0.8537    0.0000 CT        1 <0>         0.0000
      6 C3          5.3849   -0.3838    0.0000 CT        1 <0>         0.0000
      7 C4          4.6703    0.0287    0.0000 CT        1 <0>         0.0000
      8 C5          3.9196   -0.3894    0.0000 CT        1 <0>         0.0000
      9 C6          5.3849    1.2662    0.0000 CT        1 <0>         0.0000
     10 C7          4.6703    0.8537    0.0000 CT        1 <0>         0.0000
     11 C8          6.8799    1.1052    0.0000 CT        1 <0>         0.0000
     12 C9          6.8799   -0.2227    0.0000 CT        1 <0>         0.0000
     13 C10         5.3981   -1.2430    0.0000 CT        1 <0>         0.0000
     14 C11         7.3614    0.4412    0.0000 CT        1 <0>         0.0000
     15 C12         4.6572   -1.6784    0.0000 CT        1 <0>         0.0000
     16 C13         3.9130   -1.2487    0.0000 CM        1 <0>         0.0000
     17 C14         6.0993    1.6787    0.0000 CT        1 <0>         0.0000
     18 C15         3.1550    0.0760    0.0000 CT        1 <0>         0.0000
     19 C16         3.9259    0.4356    0.0000 CT        1 <0>         0.0000
     20 C17         7.1363    1.8893    0.0000 C         1 <0>         0.0000
     21 C18         2.3729   -0.3596    0.0000 CT        1 <0>         0.0000
     22 C19         3.1413   -1.7022    0.0000 CM        1 <0>         0.0000
     23 C20         4.6603   -2.5034    0.0000 CT        1 <0>         0.0000
     24 C21         2.3660   -1.2547    0.0000 C         1 <0>         0.0000
     25 C22         7.9435    2.0594    0.0000 CT        1 <0>         0.0000
     26 H1          6.1691   -0.6276    0.0000 HC        1 <0>         0.0000
     27 H2          5.9589   -0.7093    0.0000 HC        1 <0>         0.0000
     28 H3          5.2420    0.3587    0.0000 HC        1 <0>         0.0000
     29 H4          3.9559    1.2662    0.0000 HO        1 <0>         0.0000
     30 H5          5.3849    1.2662    0.0000 HC        1 <0>         0.0000
     31 H6          5.3849    1.2662    0.0000 HC        1 <0>         0.0000
     32 H7          4.6703    0.8537    0.0000 H1        1 <0>         0.0000
     33 H8          6.8799    1.1052    0.0000 HC        1 <0>         0.0000
     34 H9          6.8799   -0.2227    0.0000 HC        1 <0>         0.0000
     35 H10         6.8799   -0.2227    0.0000 HC        1 <0>         0.0000
     36 H11         5.3981   -1.2430    0.0000 HC        1 <0>         0.0000
     37 H12         5.3981   -1.2430    0.0000 HC        1 <0>         0.0000
     38 H13         7.3614    0.4412    0.0000 HC        1 <0>         0.0000
     39 H14         7.3614    0.4412    0.0000 HC        1 <0>         0.0000
     40 H15         4.6572   -1.6784    0.0000 HC        1 <0>         0.0000
     41 H16         6.0993    1.6787    0.0000 HC        1 <0>         0.0000
     42 H17         6.0993    1.6787    0.0000 HC        1 <0>         0.0000
     43 H18         6.0993    1.6787    0.0000 HC        1 <0>         0.0000
     44 H19         3.1550    0.0760    0.0000 HC        1 <0>         0.0000
     45 H20         3.1550    0.0760    0.0000 HC        1 <0>         0.0000
     46 H21         3.9259    0.4356    0.0000 HC        1 <0>         0.0000
     47 H22         3.9259    0.4356    0.0000 HC        1 <0>         0.0000
     48 H23         3.9259    0.4356    0.0000 HC        1 <0>         0.0000
     49 H24         2.3729   -0.3596    0.0000 HC        1 <0>         0.0000
     50 H25         2.3729   -0.3596    0.0000 HC        1 <0>         0.0000
     51 H26         3.1413   -1.7022    0.0000 HA        1 <0>         0.0000
     52 H27         4.6603   -2.5034    0.0000 HC        1 <0>         0.0000
     53 H28         4.6603   -2.5034    0.0000 HC        1 <0>         0.0000
     54 H29         4.6603   -2.5034    0.0000 HC        1 <0>         0.0000
     55 H30         7.9435    2.0594    0.0000 HC        1 <0>         0.0000
     56 H31         7.9435    2.0594    0.0000 HC        1 <0>         0.0000
     57 H32         7.9435    2.0594    0.0000 HC        1 <0>         0.0000
@<TRIPOS>BOND
     1    1   10 1
     2    2   20 2
     3    3   24 2
     4    4    5 1
     5    4    6 1
     6    4   12 1
     7    4   26 1
     8    5    9 1
     9    5   11 1
    10    5   17 1
    11    6    7 1
    12    6   13 1
    13    6   27 1
    14    7    8 1
    15    7   10 1
    16    7   28 1
    17    8   16 1
    18    8   18 1
    19    8   19 1
    20    9   10 1
    21   11   14 1
    22   11   20 1
    23   12   14 1
    24   13   15 1
    25   15   16 1
    26   15   23 1
    27   16   22 2
    28   18   21 1
    29   20   25 1
    30   21   24 1
    31   22   24 1
    32    1   29 1
    33    9   30 1
    34    9   31 1
    35   10   32 1
    36   11   33 1
    37   12   34 1
    38   12   35 1
    39   13   36 1
    40   13   37 1
    41   14   38 1
    42   14   39 1
    43   15   40 1
    44   17   41 1
    45   17   42 1
    46   17   43 1
    47   18   44 1
    48   18   45 1
    49   19   46 1
    50   19   47 1
    51   19   48 1
    52   21   49 1
    53   21   50 1
    54   22   51 1
    55   23   52 1
    56   23   53 1
    57   23   54 1
    58   25   55 1
    59   25   56 1
    60   25   57 1
@<TRIPOS>MOLECULE
255
   40    41     0     0     0
SMALL
NO_CHARGES

@<TRIPOS>ATOM
      1 O1          3.7935    3.5063    0.0000 OH        1 <0>         0.0000
      2 O2          3.0791   -3.5063    0.0000 OH        1 <0>         0.0000
      3 C1          3.7935    0.2063    0.0000 CM        1 <0>         0.0000
      4 C2          3.0791   -0.2063    0.0000 CM        1 <0>         0.0000
      5 C3          4.5080   -0.2063    0.0000 CT        1 <0>         0.0000
      6 C4          2.3645    0.2063    0.0000 CT        1 <0>         0.0000
      7 C5          3.7935    1.0313    0.0000 CA        1 <0>         0.0000
      8 C6          3.0791   -1.0313    0.0000 CA        1 <0>         0.0000
      9 C7          5.2224    0.2063    0.0000 CT        1 <0>         0.0000
     10 C8          1.6500   -0.2063    0.0000 CT        1 <0>         0.0000
     11 C9          3.0791    1.4438    0.0000 CA        1 <0>         0.0000
     12 C10         3.7935   -1.4438    0.0000 CA        1 <0>         0.0000
     13 C11         4.5080    1.4438    0.0000 CA        1 <0>         0.0000
     14 C12         2.3645   -1.4438    0.0000 CA        1 <0>         0.0000
     15 C13         3.0791    2.2688    0.0000 CA        1 <0>         0.0000
     16 C14         3.7935   -2.2688    0.0000 CA        1 <0>         0.0000
     17 C15         4.5080    2.2688    0.0000 CA        1 <0>         0.0000
     18 C16         2.3645   -2.2688    0.0000 CA        1 <0>         0.0000
     19 C17         3.7935    2.6813    0.0000 CA        1 <0>         0.0000
     20 C18         3.0791   -2.6813    0.0000 CA        1 <0>         0.0000
     21 H1          3.7935    3.5063    0.0000 HO        1 <0>         0.0000
     22 H2          3.0791   -3.5063    0.0000 HO        1 <0>         0.0000
     23 H3          4.5080   -0.2063    0.0000 HC        1 <0>         0.0000
     24 H4          4.5080   -0.2063    0.0000 HC        1 <0>         0.0000
     25 H5          2.3645    0.2063    0.0000 HC        1 <0>         0.0000
     26 H6          2.3645    0.2063    0.0000 HC        1 <0>         0.0000
     27 H7          5.2224    0.2063    0.0000 HC        1 <0>         0.0000
     28 H8          5.2224    0.2063    0.0000 HC        1 <0>         0.0000
     29 H9          5.2224    0.2063    0.0000 HC        1 <0>         0.0000
     30 H10         1.6500   -0.2063    0.0000 HC        1 <0>         0.0000
     31 H11         1.6500   -0.2063    0.0000 HC        1 <0>         0.0000
     32 H12         1.6500   -0.2063    0.0000 HC        1 <0>         0.0000
     33 H13         3.0791    1.4438    0.0000 HA        1 <0>         0.0000
     34 H14         3.7935   -1.4438    0.0000 HA        1 <0>         0.0000
     35 H15         4.5080    1.4438    0.0000 HA        1 <0>         0.0000
     36 H16         2.3645   -1.4438    0.0000 HA        1 <0>         0.0000
     37 H17         3.0791    2.2688    0.0000 HA        1 <0>         0.0000
     38 H18         3.7935   -2.2688    0.0000 HA        1 <0>         0.0000
     39 H19         4.5080    2.2688    0.0000 HA        1 <0>         0.0000
     40 H20         2.3645   -2.2688    0.0000 HA        1 <0>         0.0000
@<TRIPOS>BOND
     1    1   19 1
     2    2   20 1
     3    3    4 2
     4    3    5 1
     5    3    7 1
     6    4    6 1
     7    4    8 1
     8    5    9 1
     9    6   10 1
    10    7   11 ar
    11    7   13 ar
    12    8   12 ar
    13    8   14 ar
    14   11   15 ar
    15   12   16 ar
    16   13   17 ar
    17   14   18 ar
    18   15   19 ar
    19   16   20 ar
    20   17   19 ar
    21   18   20 ar
    22    1   21 1
    23    2   22 1
    24    5   23 1
    25    5   24 1
    26    6   25 1
    27    6   26 1
    28    9   27 1
    29    9   28 1
    30    9   29 1
    31   10   30 1
    32   10   31 1
    33   10   32 1
    34   11   33 1
    35   12   34 1
    36   13   35 1
    37   14   36 1
    38   15   37 1
    39   16   38 1
    40   17   39 1
    41   18   40 1
@<TRIPOS>MOLECULE
*****
   37    40     0     0     0
SMALL
NO_CHARGES

@<TRIPOS>ATOM
      1 C1          3.7294   -3.9243    0.0000 CA        1 <0>         0.0000
      2 C2          3.0147   -3.5121    0.0000 CA        1 <0>         0.0000
      3 C3          3.7294   -4.7435    0.0000 C         1 <0>         0.0000
      4 C4          4.7048   -3.3671    0.0000 CT        1 <0>         0.0000
      5 O1          3.0147   -5.1557    0.0000 OS        1 <0>         0.0000
      6 C5          2.3111   -3.9243    0.0000 CB        1 <0>         0.0000
      7 C6          2.3111   -4.7435    0.0000 CB        1 <0>         0.0000
      8 O2          4.4440   -5.1613    0.0000 O         1 <0>         0.0000
      9 O3          3.0147   -2.6873    0.0000 OH        1 <0>         0.0000
     10 C7          1.5964   -3.5121    0.0000 CA        1 <0>         0.0000
     11 C8          1.5964   -5.1557    0.0000 CA        1 <0>         0.0000
     12 C9          0.8818   -3.9243    0.0000 CA        1 <0>         0.0000
     13 C10         0.8818   -4.7435    0.0000 CA        1 <0>         0.0000
     14 C11         5.6802   -3.9243    0.0000 CA        1 <0>         0.0000
     15 C12         6.3949   -3.5121    0.0000 CA        1 <0>         0.0000
     16 C13         5.6802   -4.7435    0.0000 C         1 <0>         0.0000
     17 O4          6.3949   -5.1557    0.0000 OS        1 <0>         0.0000
     18 C14         7.0985   -3.9243    0.0000 CB        1 <0>         0.0000
     19 C15         7.0985   -4.7435    0.0000 CB        1 <0>         0.0000
     20 O5          4.9655   -5.1613    0.0000 O         1 <0>         0.0000
     21 O6          6.3949   -2.6873    0.0000 OH        1 <0>         0.0000
     22 C16         7.8132   -3.5121    0.0000 CA        1 <0>         0.0000
     23 C17         7.8132   -5.1557    0.0000 CA        1 <0>         0.0000
     24 C18         8.5279   -3.9243    0.0000 CA        1 <0>         0.0000
     25 C19         8.5279   -4.7435    0.0000 CA        1 <0>         0.0000
     26 H1          4.7048   -3.3671    0.0000 HC        1 <0>         0.0000
     27 H2          4.7048   -3.3671    0.0000 HC        1 <0>         0.0000
     28 H3          3.0147   -2.6873    0.0000 HO        1 <0>         0.0000
     29 H4          1.5964   -3.5121    0.0000 HA        1 <0>         0.0000
     30 H5          1.5964   -5.1557    0.0000 HA        1 <0>         0.0000
     31 H6          0.8818   -3.9243    0.0000 HA        1 <0>         0.0000
     32 H7          0.8818   -4.7435    0.0000 HA        1 <0>         0.0000
     33 H8          6.3949   -2.6873    0.0000 HO        1 <0>         0.0000
     34 H9          7.8132   -3.5121    0.0000 HA        1 <0>         0.0000
     35 H10         7.8132   -5.1557    0.0000 HA        1 <0>         0.0000
     36 H11         8.5279   -3.9243    0.0000 HA        1 <0>         0.0000
     37 H12         8.5279   -4.7435    0.0000 HA        1 <0>         0.0000
@<TRIPOS>BOND
     1    1    4 1
     2    1    2 2
     3    1    3 1
     4    2    6 1
     5    2    9 1
     6    3    5 1
     7    3    8 2
     8    5    7 1
     9    6   10 ar
    10    6    7 ar
    11    7   11 ar
    12   10   12 ar
    13   11   13 ar
    14   12   13 ar
    15    4   14 1
    16   14   15 2
    17   14   16 1
    18   15   18 1
    19   15   21 1
    20   16   17 1
    21   16   20 2
    22   17   19 1
    23   18   22 ar
    24   18   19 ar
    25   19   23 ar
    26   22   24 ar
    27   23   25 ar
    28   24   25 ar
    29    4   26 1
    30    4   27 1
    31    9   28 1
    32   10   29 1
    33   11   30 1
    34   12   31 1
    35   13   32 1
    36   21   33 1
    37   22   34 1
    38   23   35 1
    39   24   36 1
    40   25   37 1
@<TRIPOS>MOLECULE
*****
   52    55     0     0     0
SMALL
NO_CHARGES

@<TRIPOS>ATOM
      1 C1          1.8036   -0.1138    0.0000 CT        1 <0>         0.0000
      2 C2          0.3045   -1.0964    0.0000 CT        1 <0>         0.0000
      3 C3          1.8036    1.2211    0.0000 CT        1 <0>         0.0000
      4 C4          0.3045    1.3786    0.0000 CT        1 <0>         0.0000
      5 C5          2.2885    0.5536    0.0000 CT        1 <0>         0.0000
      6 C6         -1.1245   -0.2714    0.0000 CT        1 <0>         0.0000
      7 C7         -0.4100    0.9661    0.0000 CM        1 <0>         0.0000
      8 C8         -0.4100   -1.5089    0.0000 CT        1 <0>         0.0000
      9 C9         -1.1245   -1.0964    0.0000 CM        1 <0>         0.0000
     10 C10        -1.8390    0.1411    0.0000 CT        1 <0>         0.0000
     11 C11        -1.8390   -1.5089    0.0000 CM        1 <0>         0.0000
     12 C12        -2.5534   -0.2714    0.0000 CT        1 <0>         0.0000
     13 C13         0.3045   -0.2714    0.0000 CT        1 <0>         0.0000
     14 H1          0.3045    0.5536    0.0000 HC        1 <0>         0.0000
     15 C14        -0.4100    0.1411    0.0000 CT        1 <0>         0.0000
     16 H2         -0.4100   -0.6839    0.0000 HC        1 <0>         0.0000
     17 C15         1.0189    0.9661    0.0000 CT        1 <0>         0.0000
     18 C16         1.0189    1.7911    0.0000 CT        1 <0>         0.0000
     19 C17         1.0189    0.1411    0.0000 CT        1 <0>         0.0000
     20 H3          1.0189   -0.6839    0.0000 HC        1 <0>         0.0000
     21 O1         -3.2679   -1.5089    0.0000 O         1 <0>         0.0000
     22 C18        -2.5534   -1.0964    0.0000 C         1 <0>         0.0000
     23 H4         -1.1245    0.5536    0.0000 HC        1 <0>         0.0000
     24 C19         2.5181    1.6336    0.0000 C2        1 <0>         0.0000
     25 O2          1.8036    2.0461    0.0000 OH        1 <0>         0.0000
     26 C20         0.3044    2.2036    0.0000 CT        1 <0>         0.0000
     27 C21         3.2325    2.0461    0.0000 C2        1 <0>         0.0000
     28 C22        -1.1245    1.3786    0.0000 CM        1 <0>         0.0000
     29 H5          1.8036   -0.1138    0.0000 HC        1 <0>         0.0000
     30 H6          1.8036   -0.1138    0.0000 HC        1 <0>         0.0000
     31 H7          0.3045   -1.0964    0.0000 HC        1 <0>         0.0000
     32 H8          0.3045   -1.0964    0.0000 HC        1 <0>         0.0000
     33 H9          0.3045    1.3786    0.0000 HC        1 <0>         0.0000
     34 H10         0.3045    1.3786    0.0000 HC        1 <0>         0.0000
     35 H11         2.2885    0.5536    0.0000 HC        1 <0>         0.0000
     36 H12         2.2885    0.5536    0.0000 HC        1 <0>         0.0000
     37 H13        -0.4100   -1.5089    0.0000 HC        1 <0>         0.0000
     38 H14        -0.4100   -1.5089    0.0000 HC        1 <0>         0.0000
     39 H15        -1.8390    0.1411    0.0000 HC        1 <0>         0.0000
     40 H16        -1.8390    0.1411    0.0000 HC        1 <0>         0.0000
     41 H17        -1.8390   -1.5089    0.0000 HA        1 <0>         0.0000
     42 H18        -2.5534   -0.2714    0.0000 HC        1 <0>         0.0000
     43 H19        -2.5534   -0.2714    0.0000 HC        1 <0>         0.0000
     44 H20         1.0189    1.7911    0.0000 HC        1 <0>         0.0000
     45 H21         1.0189    1.7911    0.0000 HC        1 <0>         0.0000
     46 H22         1.8036    2.0461    0.0000 HO        1 <0>         0.0000
     47 H23         0.3044    2.2036    0.0000 HC        1 <0>         0.0000
     48 H24         0.3044    2.2036    0.0000 HC        1 <0>         0.0000
     49 H25         0.3044    2.2036    0.0000 HC        1 <0>         0.0000
     50 H26         3.2325    2.0461    0.0000 HC        1 <0>         0.0000
     51 H27        -1.1245    1.3786    0.0000 HA        1 <0>         0.0000
     52 H28        -1.1245    1.3786    0.0000 HA        1 <0>         0.0000
@<TRIPOS>BOND
     1   13   19 1
     2   17   19 1
     3    1   19 1
     4   13   15 1
     5    2   13 1
     6    3   17 1
     7    4   17 1
     8    1    5 1
     9    6   15 1
    10    7   15 1
    11    2    8 1
    12    6    9 1
    13    6   10 1
    14    9   11 2
    15   10   12 1
    16   11   22 1
    17    3    5 1
    18    4    7 1
    19    8    9 1
    20   12   22 1
    21   13   14 1
    22   15   16 1
    23   17   18 1
    24   19   20 1
    25   21   22 2
    26    6   23 1
    27    3   24 1
    28    3   25 1
    29   18   26 1
    30   24   27 3
    31    7   28 2
    32    1   29 1
    33    1   30 1
    34    2   31 1
    35    2   32 1
    36    4   33 1
    37    4   34 1
    38    5   35 1
    39    5   36 1
    40    8   37 1
    41    8   38 1
    42   10   39 1
    43   10   40 1
    44   11   41 1
    45   12   42 1
    46   12   43 1
    47   18   44 1
    48   18   45 1
    49   25   46 1
    50   26   47 1
    51   26   48 1
    52   26   49 1
    53   27   50 1
    54   28   51 1
    55   28   52 1
@<TRIPOS>MOLECULE
304
   53    56     0     0     0
SMALL
NO_CHARGES

@<TRIPOS>ATOM
      1 O1          5.9104    1.5551    0.0000 OH        1 <0>         0.0000
      2 C1          5.3833    0.5186    0.0000 CT        1 <0>         0.0000
      3 C2          5.3833   -0.3064    0.0000 CT        1 <0>         0.0000
      4 C3          4.6689   -0.7189    0.0000 CT        1 <0>         0.0000
      5 C4          3.9544   -0.3064    0.0000 CT        1 <0>         0.0000
      6 C5          6.1640    0.7700    0.0000 CT        1 <0>         0.0000
      7 C6          6.1640   -0.5579    0.0000 CT        1 <0>         0.0000
      8 C7          4.6689    0.9311    0.0000 CT        1 <0>         0.0000
      9 C8          6.6455    0.1061    0.0000 CT        1 <0>         0.0000
     10 C9          3.2036   -0.7246    0.0000 CT        1 <0>         0.0000
     11 C10         4.6821   -1.5783    0.0000 CT        1 <0>         0.0000
     12 C11         3.9544    0.5186    0.0000 CM        1 <0>         0.0000
     13 C12         5.3833    1.3436    0.0000 CT        1 <0>         0.0000
     14 C13         3.9412   -2.0136    0.0000 CT        1 <0>         0.0000
     15 C14         3.1970   -1.5840    0.0000 CM        1 <0>         0.0000
     16 C15         2.4389   -0.2592    0.0000 CT        1 <0>         0.0000
     17 C16         4.6689    1.7561    0.0000 CT        1 <0>         0.0000
     18 C17         6.8323    1.2538    0.0000 C2        1 <0>         0.0000
     19 C18         1.6570   -0.6948    0.0000 CT        1 <0>         0.0000
     20 C19         2.4252   -2.0375    0.0000 CM        1 <0>         0.0000
     21 C20         3.2399    0.9311    0.0000 CM        1 <0>         0.0000
     22 C21         1.6500   -1.5899    0.0000 CT        1 <0>         0.0000
     23 C22         7.5006    1.7376    0.0000 C2        1 <0>         0.0000
     24 H1          5.4532   -0.9628    0.0000 HC        1 <0>         0.0000
     25 H2          5.2430   -1.0446    0.0000 HC        1 <0>         0.0000
     26 H3          4.5260    0.0236    0.0000 HC        1 <0>         0.0000
     27 H4          3.2163   -0.0647    0.0000 HC        1 <0>         0.0000
     28 H5          5.9104    1.5551    0.0000 HO        1 <0>         0.0000
     29 H6          6.1640   -0.5579    0.0000 HC        1 <0>         0.0000
     30 H7          6.1640   -0.5579    0.0000 HC        1 <0>         0.0000
     31 H8          4.6689    0.9311    0.0000 HC        1 <0>         0.0000
     32 H9          4.6689    0.9311    0.0000 HC        1 <0>         0.0000
     33 H10         6.6455    0.1061    0.0000 HC        1 <0>         0.0000
     34 H11         6.6455    0.1061    0.0000 HC        1 <0>         0.0000
     35 H12         4.6821   -1.5783    0.0000 HC        1 <0>         0.0000
     36 H13         4.6821   -1.5783    0.0000 HC        1 <0>         0.0000
     37 H14         5.3833    1.3436    0.0000 HC        1 <0>         0.0000
     38 H15         5.3833    1.3436    0.0000 HC        1 <0>         0.0000
     39 H16         3.9412   -2.0136    0.0000 HC        1 <0>         0.0000
     40 H17         3.9412   -2.0136    0.0000 HC        1 <0>         0.0000
     41 H18         2.4389   -0.2592    0.0000 HC        1 <0>         0.0000
     42 H19         2.4389   -0.2592    0.0000 HC        1 <0>         0.0000
     43 H20         4.6689    1.7561    0.0000 HC        1 <0>         0.0000
     44 H21         4.6689    1.7561    0.0000 HC        1 <0>         0.0000
     45 H22         4.6689    1.7561    0.0000 HC        1 <0>         0.0000
     46 H23         1.6570   -0.6948    0.0000 HC        1 <0>         0.0000
     47 H24         1.6570   -0.6948    0.0000 HC        1 <0>         0.0000
     48 H25         2.4252   -2.0375    0.0000 HA        1 <0>         0.0000
     49 H26         3.2399    0.9311    0.0000 HA        1 <0>         0.0000
     50 H27         3.2399    0.9311    0.0000 HA        1 <0>         0.0000
     51 H28         1.6500   -1.5899    0.0000 HC        1 <0>         0.0000
     52 H29         1.6500   -1.5899    0.0000 HC        1 <0>         0.0000
     53 H30         7.5006    1.7376    0.0000 HC        1 <0>         0.0000
@<TRIPOS>BOND
     1    1    6 1
     2    2    3 1
     3    2    6 1
     4    2    8 1
     5    2   13 1
     6    3    4 1
     7    3    7 1
     8    3   24 1
     9    4    5 1
    10    4   11 1
    11    4   25 1
    12    5   10 1
    13    5   12 1
    14    5   26 1
    15    6    9 1
    16    6   18 1
    17    7    9 1
    18    8   12 1
    19   10   15 1
    20   10   16 1
    21   10   27 1
    22   11   14 1
    23   12   21 2
    24   13   17 1
    25   14   15 1
    26   15   20 2
    27   16   19 1
    28   18   23 3
    29   19   22 1
    30   20   22 1
    31    1   28 1
    32    7   29 1
    33    7   30 1
    34    8   31 1
    35    8   32 1
    36    9   33 1
    37    9   34 1
    38   11   35 1
    39   11   36 1
    40   13   37 1
    41   13   38 1
    42   14   39 1
    43   14   40 1
    44   16   41 1
    45   16   42 1
    46   17   43 1
    47   17   44 1
    48   17   45 1
    49   19   46 1
    50   19   47 1
    51   20   48 1
    52   21   49 1
    53   21   50 1
    54   22   51 1
    55   22   52 1
    56   23   53 1
@<TRIPOS>MOLECULE
307
   54    56     0     0     0
SMALL
NO_CHARGES

@<TRIPOS>ATOM
      1 O1          5.9770   -2.7941    0.0000 OH        1 <0>         0.0000
      2 O2          4.5481   -2.7886    0.0000 O         1 <0>         0.0000
      3 C1          2.3645    0.9411    0.0000 CT        1 <0>         0.0000
      4 C2          2.3645    2.5911    0.0000 CT        1 <0>         0.0000
      5 C3          1.6500    1.3536    0.0000 CT        1 <0>         0.0000
      6 C4          1.6500    2.1786    0.0000 CT        1 <0>         0.0000
      7 C5          3.0790    1.3536    0.0000 CA        1 <0>         0.0000
      8 C6          3.0790    2.1786    0.0000 CA        1 <0>         0.0000
      9 C7          1.9520    0.2266    0.0000 CT        1 <0>         0.0000
     10 C8          2.7770    0.2266    0.0000 CT        1 <0>         0.0000
     11 C9          1.9520    3.3056    0.0000 CT        1 <0>         0.0000
     12 C10         2.7770    3.3056    0.0000 CT        1 <0>         0.0000
     13 C11         3.8165    0.9125    0.0000 CA        1 <0>         0.0000
     14 C12         3.8165    2.6197    0.0000 CA        1 <0>         0.0000
     15 C13         4.5640    1.3364    0.0000 CA        1 <0>         0.0000
     16 C14         4.5640    2.1958    0.0000 CA        1 <0>         0.0000
     17 C15         5.2769    0.9212    0.0000 CM        1 <0>         0.0000
     18 C16         5.2769    2.6111    0.0000 CT        1 <0>         0.0000
     19 C17         5.2737    0.0962    0.0000 CA        1 <0>         0.0000
     20 C18         5.9929    1.3309    0.0000 CM        1 <0>         0.0000
     21 C19         4.5577   -0.3136    0.0000 CA        1 <0>         0.0000
     22 C20         5.9866   -0.3191    0.0000 CA        1 <0>         0.0000
     23 C21         4.5545   -1.1386    0.0000 CA        1 <0>         0.0000
     24 C22         5.9834   -1.1441    0.0000 CA        1 <0>         0.0000
     25 C23         5.2673   -1.5538    0.0000 CA        1 <0>         0.0000
     26 C24         5.2641   -2.3788    0.0000 C         1 <0>         0.0000
     27 H1          5.9770   -2.7941    0.0000 HO        1 <0>         0.0000
     28 H2          1.6500    1.3536    0.0000 HC        1 <0>         0.0000
     29 H3          1.6500    1.3536    0.0000 HC        1 <0>         0.0000
     30 H4          1.6500    2.1786    0.0000 HC        1 <0>         0.0000
     31 H5          1.6500    2.1786    0.0000 HC        1 <0>         0.0000
     32 H6          1.9520    0.2266    0.0000 HC        1 <0>         0.0000
     33 H7          1.9520    0.2266    0.0000 HC        1 <0>         0.0000
     34 H8          1.9520    0.2266    0.0000 HC        1 <0>         0.0000
     35 H9          2.7770    0.2266    0.0000 HC        1 <0>         0.0000
     36 H10         2.7770    0.2266    0.0000 HC        1 <0>         0.0000
     37 H11         2.7770    0.2266    0.0000 HC        1 <0>         0.0000
     38 H12         1.9520    3.3056    0.0000 HC        1 <0>         0.0000
     39 H13         1.9520    3.3056    0.0000 HC        1 <0>         0.0000
     40 H14         1.9520    3.3056    0.0000 HC        1 <0>         0.0000
     41 H15         2.7770    3.3056    0.0000 HC        1 <0>         0.0000
     42 H16         2.7770    3.3056    0.0000 HC        1 <0>         0.0000
     43 H17         2.7770    3.3056    0.0000 HC        1 <0>         0.0000
     44 H18         3.8165    0.9125    0.0000 HA        1 <0>         0.0000
     45 H19         3.8165    2.6197    0.0000 HA        1 <0>         0.0000
     46 H20         5.2769    2.6111    0.0000 HC        1 <0>         0.0000
     47 H21         5.2769    2.6111    0.0000 HC        1 <0>         0.0000
     48 H22         5.2769    2.6111    0.0000 HC        1 <0>         0.0000
     49 H23         5.9929    1.3309    0.0000 HA        1 <0>         0.0000
     50 H24         5.9929    1.3309    0.0000 HA        1 <0>         0.0000
     51 H25         4.5577   -0.3136    0.0000 HA        1 <0>         0.0000
     52 H26         5.9866   -0.3191    0.0000 HA        1 <0>         0.0000
     53 H27         4.5545   -1.1386    0.0000 HA        1 <0>         0.0000
     54 H28         5.9834   -1.1441    0.0000 HA        1 <0>         0.0000
@<TRIPOS>BOND
     1    1   26 1
     2    2   26 2
     3    3    5 1
     4    3    7 1
     5    3    9 1
     6    3   10 1
     7    4    6 1
     8    4    8 1
     9    4   11 1
    10    4   12 1
    11    5    6 1
    12    7    8 ar
    13    7   13 ar
    14    8   14 ar
    15   13   15 ar
    16   14   16 ar
    17   15   16 ar
    18   15   17 1
    19   16   18 1
    20   17   19 1
    21   17   20 2
    22   19   21 ar
    23   19   22 ar
    24   21   23 ar
    25   22   24 ar
    26   23   25 ar
    27   24   25 ar
    28   25   26 1
    29    1   27 1
    30    5   28 1
    31    5   29 1
    32    6   30 1
    33    6   31 1
    34    9   32 1
    35    9   33 1
    36    9   34 1
    37   10   35 1
    38   10   36 1
    39   10   37 1
    40   11   38 1
    41   11   39 1
    42   11   40 1
    43   12   41 1
    44   12   42 1
    45   12   43 1
    46   13   44 1
    47   14   45 1
    48   18   46 1
    49   18   47 1
    50   18   48 1
    51   20   49 1
    52   20   50 1
    53   21   51 1
    54   22   52 1
    55   23   53 1
    56   24   54 1
@<TRIPOS>MOLECULE
*****
   26    25     0     0     0
SMALL
NO_CHARGES

@<TRIPOS>ATOM
      1 C1         -1.4289    0.1650    0.0000 CT        1 <0>         0.0000
      2 C2         -0.7145   -0.2475    0.0000 CT        1 <0>         0.0000
      3 C3          0.0000    0.1650    0.0000 CT        1 <0>         0.0000
      4 C4          0.7145   -0.2475    0.0000 CT        1 <0>         0.0000
      5 C5          1.4289    0.1650    0.0000 C         1 <0>         0.0000
      6 C6          0.0000   -1.4850    0.0000 CT        1 <0>         0.0000
      7 C7          0.0000   -2.3100    0.0000 CT        1 <0>         0.0000
      8 C8          0.7145   -1.0725    0.0000 CT        1 <0>         0.0000
      9 O1          2.1434   -0.2475    0.0000 OH        1 <0>         0.0000
     10 O2          1.4289    0.9900    0.0000 O         1 <0>         0.0000
     11 H1         -1.4289    0.1650    0.0000 HC        1 <0>         0.0000
     12 H2         -1.4289    0.1650    0.0000 HC        1 <0>         0.0000
     13 H3         -1.4289    0.1650    0.0000 HC        1 <0>         0.0000
     14 H4         -0.7145   -0.2475    0.0000 HC        1 <0>         0.0000
     15 H5         -0.7145   -0.2475    0.0000 HC        1 <0>         0.0000
     16 H6          0.0000    0.1650    0.0000 HC        1 <0>         0.0000
     17 H7          0.0000    0.1650    0.0000 HC        1 <0>         0.0000
     18 H8          0.7145   -0.2475    0.0000 HC        1 <0>         0.0000
     19 H9          0.0000   -1.4850    0.0000 HC        1 <0>         0.0000
     20 H10         0.0000   -1.4850    0.0000 HC        1 <0>         0.0000
     21 H11         0.0000   -2.3100    0.0000 HC        1 <0>         0.0000
     22 H12         0.0000   -2.3100    0.0000 HC        1 <0>         0.0000
     23 H13         0.0000   -2.3100    0.0000 HC        1 <0>         0.0000
     24 H14         0.7145   -1.0725    0.0000 HC        1 <0>         0.0000
     25 H15         0.7145   -1.0725    0.0000 HC        1 <0>         0.0000
     26 H16         2.1434   -0.2475    0.0000 HO        1 <0>         0.0000
@<TRIPOS>BOND
     1    1    2 1
     2    2    3 1
     3    3    4 1
     4    4    8 1
     5    4    5 1
     6    5    9 1
     7    5   10 2
     8    6    7 1
     9    6    8 1
    10    1   11 1
    11    1   12 1
    12    1   13 1
    13    2   14 1
    14    2   15 1
    15    3   16 1
    16    3   17 1
    17    4   18 1
    18    6   19 1
    19    6   20 1
    20    7   21 1
    21    7   22 1
    22    7   23 1
    23    8   24 1
    24    8   25 1
    25    9   26 1
@<TRIPOS>MOLECULE
*****
   57    60     0     0     0
SMALL
NO_CHARGES

@<TRIPOS>ATOM
      1 C1          1.8036   -0.1138    0.0000 CT        1 <0>         0.0000
      2 C2          0.3045   -1.0964    0.0000 CM        1 <0>         0.0000
      3 C3          1.8036    1.2211    0.0000 CT        1 <0>         0.0000
      4 C4          0.3045    1.3786    0.0000 CT        1 <0>         0.0000
      5 C5          2.2885    0.5536    0.0000 CT        1 <0>         0.0000
      6 C6         -1.1245   -0.2714    0.0000 CT        1 <0>         0.0000
      7 C7         -0.4100    0.9661    0.0000 CT        1 <0>         0.0000
      8 C8         -0.4100   -1.5089    0.0000 CM        1 <0>         0.0000
      9 C9         -1.1245   -1.0964    0.0000 CM        1 <0>         0.0000
     10 C10        -1.8390    0.1411    0.0000 CT        1 <0>         0.0000
     11 C11        -1.8390   -1.5089    0.0000 CM        1 <0>         0.0000
     12 C12        -2.5534   -0.2714    0.0000 CT        1 <0>         0.0000
     13 C13         0.3045   -0.2714    0.0000 CT        1 <0>         0.0000
     14 H1          0.3045    0.5536    0.0000 HC        1 <0>         0.0000
     15 C14        -0.4100    0.1411    0.0000 CT        1 <0>         0.0000
     16 H2         -0.4100   -0.6839    0.0000 HC        1 <0>         0.0000
     17 C15         1.0189    0.9661    0.0000 CT        1 <0>         0.0000
     18 C16         1.0189    1.7911    0.0000 CT        1 <0>         0.0000
     19 C17         1.0189    0.1411    0.0000 CT        1 <0>         0.0000
     20 H3          1.0189   -0.6839    0.0000 HC        1 <0>         0.0000
     21 O1         -3.2679   -1.5089    0.0000 O         1 <0>         0.0000
     22 C18        -2.5534   -1.0964    0.0000 C         1 <0>         0.0000
     23 C19        -1.1245    0.5536    0.0000 CT        1 <0>         0.0000
     24 O2          2.5181    1.6336    0.0000 OS        1 <0>         0.0000
     25 C20         1.8036    2.0461    0.0000 C         1 <0>         0.0000
     26 C21         1.2202    2.6295    0.0000 CT        1 <0>         0.0000
     27 O3          2.5181    2.4586    0.0000 O         1 <0>         0.0000
     28 C22         3.3431    1.6336    0.0000 C         1 <0>         0.0000
     29 C23         3.7556    0.9191    0.0000 CT        1 <0>         0.0000
     30 O4          3.9265    2.2170    0.0000 O         1 <0>         0.0000
     31 H4          1.8036   -0.1138    0.0000 HC        1 <0>         0.0000
     32 H5          1.8036   -0.1138    0.0000 HC        1 <0>         0.0000
     33 H6          0.3045   -1.0964    0.0000 HA        1 <0>         0.0000
     34 H7          0.3045    1.3786    0.0000 HC        1 <0>         0.0000
     35 H8          0.3045    1.3786    0.0000 HC        1 <0>         0.0000
     36 H9          2.2885    0.5536    0.0000 HC        1 <0>         0.0000
     37 H10         2.2885    0.5536    0.0000 HC        1 <0>         0.0000
     38 H11        -0.4100    0.9661    0.0000 HC        1 <0>         0.0000
     39 H12        -0.4100    0.9661    0.0000 HC        1 <0>         0.0000
     40 H13        -0.4100   -1.5089    0.0000 HA        1 <0>         0.0000
     41 H14        -1.8390    0.1411    0.0000 HC        1 <0>         0.0000
     42 H15        -1.8390    0.1411    0.0000 HC        1 <0>         0.0000
     43 H16        -1.8390   -1.5089    0.0000 HA        1 <0>         0.0000
     44 H17        -2.5534   -0.2714    0.0000 HC        1 <0>         0.0000
     45 H18        -2.5534   -0.2714    0.0000 HC        1 <0>         0.0000
     46 H19         1.0189    1.7911    0.0000 HC        1 <0>         0.0000
     47 H20         1.0189    1.7911    0.0000 HC        1 <0>         0.0000
     48 H21         1.0189    1.7911    0.0000 HC        1 <0>         0.0000
     49 H22        -1.1245    0.5536    0.0000 HC        1 <0>         0.0000
     50 H23        -1.1245    0.5536    0.0000 HC        1 <0>         0.0000
     51 H24        -1.1245    0.5536    0.0000 HC        1 <0>         0.0000
     52 H25         1.2202    2.6295    0.0000 HC        1 <0>         0.0000
     53 H26         1.2202    2.6295    0.0000 HC        1 <0>         0.0000
     54 H27         1.2202    2.6295    0.0000 HC        1 <0>         0.0000
     55 H28         3.7556    0.9191    0.0000 HC        1 <0>         0.0000
     56 H29         3.7556    0.9191    0.0000 HC        1 <0>         0.0000
     57 H30         3.7556    0.9191    0.0000 HC        1 <0>         0.0000
@<TRIPOS>BOND
     1   13   19 1
     2   17   19 1
     3    1   19 1
     4   13   15 1
     5    2   13 1
     6    3   17 1
     7    4   17 1
     8    1    5 1
     9    6   15 1
    10    7   15 1
    11    2    8 2
    12    6    9 1
    13    6   10 1
    14    9   11 2
    15   10   12 1
    16   11   22 1
    17    3    5 1
    18    4    7 1
    19    8    9 1
    20   12   22 1
    21   13   14 1
    22   15   16 1
    23   17   18 1
    24   19   20 1
    25   21   22 2
    26    6   23 1
    27    3   24 1
    28    3   25 1
    29   25   26 1
    30   25   27 2
    31   24   28 1
    32   28   29 1
    33   28   30 2
    34    1   31 1
    35    1   32 1
    36    2   33 1
    37    4   34 1
    38    4   35 1
    39    5   36 1
    40    5   37 1
    41    7   38 1
    42    7   39 1
    43    8   40 1
    44   10   41 1
    45   10   42 1
    46   11   43 1
    47   12   44 1
    48   12   45 1
    49   18   46 1
    50   18   47 1
    51   18   48 1
    52   23   49 1
    53   23   50 1
    54   23   51 1
    55   26   52 1
    56   26   53 1
    57   26   54 1
    58   29   55 1
    59   29   56 1
    60   29   57 1
@<TRIPOS>MOLECULE
367
   51    54     0     0     0
SMALL
NO_CHARGES

@<TRIPOS>ATOM
      1 O1          6.6263    1.5550    0.0000 OH        1 <0>         0.0000
      2 O2          1.6500   -1.9996    0.0000 O         1 <0>         0.0000
      3 C1          6.0993    0.5186    0.0000 CT        1 <0>         0.0000
      4 C2          6.0993   -0.3064    0.0000 CT        1 <0>         0.0000
      5 C3          5.3849   -0.7189    0.0000 CT        1 <0>         0.0000
      6 C4          4.6703   -0.3064    0.0000 CT        1 <0>         0.0000
      7 C5          6.8799    0.7700    0.0000 CT        1 <0>         0.0000
      8 C6          5.3849    0.9311    0.0000 CT        1 <0>         0.0000
      9 C7          6.8799   -0.5579    0.0000 CT        1 <0>         0.0000
     10 C8          4.6703    0.5186    0.0000 CT        1 <0>         0.0000
     11 C9          3.9196   -0.7246    0.0000 CT        1 <0>         0.0000
     12 C10         7.3614    0.1061    0.0000 CT        1 <0>         0.0000
     13 C11         5.3981   -1.5782    0.0000 CT        1 <0>         0.0000
     14 C12         6.0993    1.3436    0.0000 CT        1 <0>         0.0000
     15 C13         4.6572   -2.0136    0.0000 CT        1 <0>         0.0000
     16 C14         3.9130   -1.5839    0.0000 CM        1 <0>         0.0000
     17 C15         3.1550   -0.2592    0.0000 CT        1 <0>         0.0000
     18 C16         5.3849    1.7561    0.0000 CT        1 <0>         0.0000
     19 C17         7.5482    1.2538    0.0000 C2        1 <0>         0.0000
     20 C18         2.3729   -0.6948    0.0000 CT        1 <0>         0.0000
     21 C19         3.1413   -2.0374    0.0000 CM        1 <0>         0.0000
     22 C20         2.3660   -1.5899    0.0000 C         1 <0>         0.0000
     23 C21         8.2165    1.7375    0.0000 C2        1 <0>         0.0000
     24 H1          6.1691   -0.9628    0.0000 HC        1 <0>         0.0000
     25 H2          5.9589   -1.0445    0.0000 HC        1 <0>         0.0000
     26 H3          5.2420    0.0236    0.0000 HC        1 <0>         0.0000
     27 H4          3.9323   -0.0647    0.0000 HC        1 <0>         0.0000
     28 H5          6.6263    1.5550    0.0000 HO        1 <0>         0.0000
     29 H6          5.3849    0.9311    0.0000 HC        1 <0>         0.0000
     30 H7          5.3849    0.9311    0.0000 HC        1 <0>         0.0000
     31 H8          6.8799   -0.5579    0.0000 HC        1 <0>         0.0000
     32 H9          6.8799   -0.5579    0.0000 HC        1 <0>         0.0000
     33 H10         4.6703    0.5186    0.0000 HC        1 <0>         0.0000
     34 H11         4.6703    0.5186    0.0000 HC        1 <0>         0.0000
     35 H12         7.3614    0.1061    0.0000 HC        1 <0>         0.0000
     36 H13         7.3614    0.1061    0.0000 HC        1 <0>         0.0000
     37 H14         5.3981   -1.5782    0.0000 HC        1 <0>         0.0000
     38 H15         5.3981   -1.5782    0.0000 HC        1 <0>         0.0000
     39 H16         6.0993    1.3436    0.0000 HC        1 <0>         0.0000
     40 H17         6.0993    1.3436    0.0000 HC        1 <0>         0.0000
     41 H18         4.6572   -2.0136    0.0000 HC        1 <0>         0.0000
     42 H19         4.6572   -2.0136    0.0000 HC        1 <0>         0.0000
     43 H20         3.1550   -0.2592    0.0000 HC        1 <0>         0.0000
     44 H21         3.1550   -0.2592    0.0000 HC        1 <0>         0.0000
     45 H22         5.3849    1.7561    0.0000 HC        1 <0>         0.0000
     46 H23         5.3849    1.7561    0.0000 HC        1 <0>         0.0000
     47 H24         5.3849    1.7561    0.0000 HC        1 <0>         0.0000
     48 H25         2.3729   -0.6948    0.0000 HC        1 <0>         0.0000
     49 H26         2.3729   -0.6948    0.0000 HC        1 <0>         0.0000
     50 H27         3.1413   -2.0374    0.0000 HA        1 <0>         0.0000
     51 H28         8.2165    1.7375    0.0000 HC        1 <0>         0.0000
@<TRIPOS>BOND
     1    1    7 1
     2    2   22 2
     3    3    4 1
     4    3    7 1
     5    3    8 1
     6    3   14 1
     7    4    5 1
     8    4    9 1
     9    4   24 1
    10    5    6 1
    11    5   13 1
    12    5   25 1
    13    6   10 1
    14    6   11 1
    15    6   26 1
    16    7   12 1
    17    7   19 1
    18    8   10 1
    19    9   12 1
    20   11   16 1
    21   11   17 1
    22   11   27 1
    23   13   15 1
    24   14   18 1
    25   15   16 1
    26   16   21 2
    27   17   20 1
    28   19   23 3
    29   20   22 1
    30   21   22 1
    31    1   28 1
    32    8   29 1
    33    8   30 1
    34    9   31 1
    35    9   32 1
    36   10   33 1
    37   10   34 1
    38   12   35 1
    39   12   36 1
    40   13   37 1
    41   13   38 1
    42   14   39 1
    43   14   40 1
    44   15   41 1
    45   15   42 1
    46   17   43 1
    47   17   44 1
    48   18   45 1
    49   18   46 1
    50   18   47 1
    51   20   48 1
    52   20   49 1
    53   21   50 1
    54   23   51 1
@<TRIPOS>MOLECULE
*****
   62    64     0     0     0
SMALL
NO_CHARGES

@<TRIPOS>ATOM
      1 C1          2.9836   -1.8063    0.0000 CA        1 <0>         0.0000
      2 C2          3.7068   -2.2034    0.0000 CA        1 <0>         0.0000
      3 C3          4.4123   -1.7757    0.0000 CA        1 <0>         0.0000
      4 C4          4.3947   -0.9509    0.0000 CA        1 <0>         0.0000
      5 C5          3.6715   -0.5538    0.0000 CA        1 <0>         0.0000
      6 C6          2.9660   -0.9815    0.0000 CA        1 <0>         0.0000
      7 C7          2.2429   -0.5844    0.0000 CT        1 <0>         0.0000
      8 C8          1.5373   -1.0121    0.0000 CT        1 <0>         0.0000
      9 C9          1.5550   -1.8369    0.0000 CT        1 <0>         0.0000
     10 C10         2.2782   -2.2340    0.0000 CT        1 <0>         0.0000
     11 C11         0.7760   -2.1085    0.0000 CT        1 <0>         0.0000
     12 C12         0.7474   -0.7740    0.0000 CT        1 <0>         0.0000
     13 C13         0.2769   -1.4516    0.0000 CT        1 <0>         0.0000
     14 O1          3.6538    0.2710    0.0000 OS        1 <0>         0.0000
     15 C14         4.3593    0.6987    0.0000 CT        1 <0>         0.0000
     16 C15         5.0824    0.3016    0.0000 C         1 <0>         0.0000
     17 C16         0.7936   -2.9333    0.0000 CT        1 <0>         0.0000
     18 C17         0.0882   -3.3610    0.0000 CT        1 <0>         0.0000
     19 C18        -0.6350   -2.9639    0.0000 CT        1 <0>         0.0000
     20 C19        -1.3405   -3.3916    0.0000 CT        1 <0>         0.0000
     21 C20        -2.0636   -2.9944    0.0000 CT        1 <0>         0.0000
     22 C21        -2.7691   -3.4221    0.0000 CT        1 <0>         0.0000
     23 C22        -3.4922   -3.0250    0.0000 CT        1 <0>         0.0000
     24 C23        -4.1977   -3.4527    0.0000 CT        1 <0>         0.0000
     25 O2          5.7879    0.7293    0.0000 OH        1 <0>         0.0000
     26 O3          5.1001   -0.5232    0.0000 O         1 <0>         0.0000
     27 O4         -0.5479   -1.4692    0.0000 OH        1 <0>         0.0000
     28 O5         -0.6526   -2.1391    0.0000 OH        1 <0>         0.0000
     29 H1          1.5726   -2.6617    0.0000 HC        1 <0>         0.0000
     30 H2          1.5197   -0.1872    0.0000 HC        1 <0>         0.0000
     31 H3          3.7068   -2.2034    0.0000 HA        1 <0>         0.0000
     32 H4          4.4123   -1.7757    0.0000 HA        1 <0>         0.0000
     33 H5          4.3947   -0.9509    0.0000 HA        1 <0>         0.0000
     34 H6          2.2429   -0.5844    0.0000 HC        1 <0>         0.0000
     35 H7          2.2429   -0.5844    0.0000 HC        1 <0>         0.0000
     36 H8          2.2782   -2.2340    0.0000 HC        1 <0>         0.0000
     37 H9          2.2782   -2.2340    0.0000 HC        1 <0>         0.0000
     38 H10         0.7760   -2.1085    0.0000 HC        1 <0>         0.0000
     39 H11         0.7474   -0.7740    0.0000 HC        1 <0>         0.0000
     40 H12         0.7474   -0.7740    0.0000 HC        1 <0>         0.0000
     41 H13         0.2769   -1.4516    0.0000 H1        1 <0>         0.0000
     42 H14         4.3593    0.6987    0.0000 H1        1 <0>         0.0000
     43 H15         4.3593    0.6987    0.0000 H1        1 <0>         0.0000
     44 H16         0.7936   -2.9333    0.0000 HC        1 <0>         0.0000
     45 H17         0.7936   -2.9333    0.0000 HC        1 <0>         0.0000
     46 H18         0.0882   -3.3610    0.0000 HC        1 <0>         0.0000
     47 H19         0.0882   -3.3610    0.0000 HC        1 <0>         0.0000
     48 H20        -0.6350   -2.9639    0.0000 H1        1 <0>         0.0000
     49 H21        -1.3405   -3.3916    0.0000 HC        1 <0>         0.0000
     50 H22        -1.3405   -3.3916    0.0000 HC        1 <0>         0.0000
     51 H23        -2.0636   -2.9944    0.0000 HC        1 <0>         0.0000
     52 H24        -2.0636   -2.9944    0.0000 HC        1 <0>         0.0000
     53 H25        -2.7691   -3.4221    0.0000 HC        1 <0>         0.0000
     54 H26        -2.7691   -3.4221    0.0000 HC        1 <0>         0.0000
     55 H27        -3.4922   -3.0250    0.0000 HC        1 <0>         0.0000
     56 H28        -3.4922   -3.0250    0.0000 HC        1 <0>         0.0000
     57 H29        -4.1977   -3.4527    0.0000 HC        1 <0>         0.0000
     58 H30        -4.1977   -3.4527    0.0000 HC        1 <0>         0.0000
     59 H31        -4.1977   -3.4527    0.0000 HC        1 <0>         0.0000
     60 H32         5.7879    0.7293    0.0000 HO        1 <0>         0.0000
     61 H33        -0.5479   -1.4692    0.0000 HO        1 <0>         0.0000
     62 H34        -0.6526   -2.1391    0.0000 HO        1 <0>         0.0000
@<TRIPOS>BOND
     1    1    2 ar
     2    1    6 ar
     3    1   10 1
     4    2    3 ar
     5    3    4 ar
     6    4    5 ar
     7    5    6 ar
     8    6    7 1
     9    7    8 1
    10    9   10 1
    11    8   12 1
    12    8    9 1
    13    9   11 1
    14   11   13 1
    15   12   13 1
    16    5   14 1
    17   14   15 1
    18   15   16 1
    19   11   17 1
    20   17   18 1
    21   18   19 1
    22   19   20 1
    23   20   21 1
    24   21   22 1
    25   22   23 1
    26   23   24 1
    27   16   25 1
    28   16   26 2
    29   13   27 1
    30   19   28 1
    31    9   29 1
    32    8   30 1
    33    2   31 1
    34    3   32 1
    35    4   33 1
    36    7   34 1
    37    7   35 1
    38   10   36 1
    39   10   37 1
    40   11   38 1
    41   12   39 1
    42   12   40 1
    43   13   41 1
    44   15   42 1
    45   15   43 1
    46   17   44 1
    47   17   45 1
    48   18   46 1
    49   18   47 1
    50   19   48 1
    51   20   49 1
    52   20   50 1
    53   21   51 1
    54   21   52 1
    55   22   53 1
    56   22   54 1
    57   23   55 1
    58   23   56 1
    59   24   57 1
    60   24   58 1
    61   24   59 1
    62   25   60 1
    63   27   61 1
    64   28   62 1
@<TRIPOS>MOLECULE
378
   51    54     0     0     0
SMALL
NO_CHARGES

@<TRIPOS>ATOM
      1 O1          6.5848    2.1027    0.0000 O         1 <0>         0.0000
      2 O2          1.6499   -2.0649    0.0000 O         1 <0>         0.0000
      3 C1          6.0989    0.4532    0.0000 CT        1 <0>         0.0000
      4 C2          6.0989   -0.3718    0.0000 CT        1 <0>         0.0000
      5 C3          5.3846   -0.7843    0.0000 CT        1 <0>         0.0000
      6 C4          4.6700   -0.3718    0.0000 CT        1 <0>         0.0000
      7 C5          6.8795    0.7046    0.0000 CT        1 <0>         0.0000
      8 C6          5.3846    0.8656    0.0000 CT        1 <0>         0.0000
      9 C7          6.8795   -0.6232    0.0000 CT        1 <0>         0.0000
     10 C8          4.6700    0.4532    0.0000 CT        1 <0>         0.0000
     11 C9          3.9194   -0.7899    0.0000 CT        1 <0>         0.0000
     12 C10         7.3609    0.0407    0.0000 CT        1 <0>         0.0000
     13 C11         6.0989    1.2781    0.0000 CT        1 <0>         0.0000
     14 C12         5.3978   -1.6435    0.0000 CM        1 <0>         0.0000
     15 C13         3.9128   -1.6492    0.0000 CM        1 <0>         0.0000
     16 C14         3.1548   -0.3246    0.0000 CT        1 <0>         0.0000
     17 C15         7.1359    1.4887    0.0000 C         1 <0>         0.0000
     18 C16         3.9257    0.0350    0.0000 CT        1 <0>         0.0000
     19 C17         4.6569   -2.0789    0.0000 CM        1 <0>         0.0000
     20 C18         2.3728   -0.7602    0.0000 CT        1 <0>         0.0000
     21 C19         3.1411   -2.1027    0.0000 CM        1 <0>         0.0000
     22 C20         2.3659   -1.6552    0.0000 C         1 <0>         0.0000
     23 C21         7.9430    1.6588    0.0000 CT        1 <0>         0.0000
     24 H1          6.1687   -1.0280    0.0000 HC        1 <0>         0.0000
     25 H2          5.9585   -1.1098    0.0000 HC        1 <0>         0.0000
     26 H3          5.2417   -0.0418    0.0000 HC        1 <0>         0.0000
     27 H4          6.8795    0.7046    0.0000 HC        1 <0>         0.0000
     28 H5          5.3846    0.8656    0.0000 HC        1 <0>         0.0000
     29 H6          5.3846    0.8656    0.0000 HC        1 <0>         0.0000
     30 H7          6.8795   -0.6232    0.0000 HC        1 <0>         0.0000
     31 H8          6.8795   -0.6232    0.0000 HC        1 <0>         0.0000
     32 H9          4.6700    0.4532    0.0000 HC        1 <0>         0.0000
     33 H10         4.6700    0.4532    0.0000 HC        1 <0>         0.0000
     34 H11         7.3609    0.0407    0.0000 HC        1 <0>         0.0000
     35 H12         7.3609    0.0407    0.0000 HC        1 <0>         0.0000
     36 H13         6.0989    1.2781    0.0000 HC        1 <0>         0.0000
     37 H14         6.0989    1.2781    0.0000 HC        1 <0>         0.0000
     38 H15         6.0989    1.2781    0.0000 HC        1 <0>         0.0000
     39 H16         5.3978   -1.6435    0.0000 HA        1 <0>         0.0000
     40 H17         3.1548   -0.3246    0.0000 HC        1 <0>         0.0000
     41 H18         3.1548   -0.3246    0.0000 HC        1 <0>         0.0000
     42 H19         3.9257    0.0350    0.0000 HC        1 <0>         0.0000
     43 H20         3.9257    0.0350    0.0000 HC        1 <0>         0.0000
     44 H21         3.9257    0.0350    0.0000 HC        1 <0>         0.0000
     45 H22         4.6569   -2.0789    0.0000 HA        1 <0>         0.0000
     46 H23         2.3728   -0.7602    0.0000 HC        1 <0>         0.0000
     47 H24         2.3728   -0.7602    0.0000 HC        1 <0>         0.0000
     48 H25         3.1411   -2.1027    0.0000 HA        1 <0>         0.0000
     49 H26         7.9430    1.6588    0.0000 HC        1 <0>         0.0000
     50 H27         7.9430    1.6588    0.0000 HC        1 <0>         0.0000
     51 H28         7.9430    1.6588    0.0000 HC        1 <0>         0.0000
@<TRIPOS>BOND
     1    1   17 2
     2    2   22 2
     3    3    4 1
     4    3    7 1
     5    3    8 1
     6    3   13 1
     7    4    5 1
     8    4    9 1
     9    4   24 1
    10    5    6 1
    11    5   14 1
    12    5   25 1
    13    6   10 1
    14    6   11 1
    15    6   26 1
    16    7   12 1
    17    7   17 1
    18    8   10 1
    19    9   12 1
    20   11   15 1
    21   11   16 1
    22   11   18 1
    23   14   19 2
    24   15   19 1
    25   15   21 2
    26   16   20 1
    27   17   23 1
    28   20   22 1
    29   21   22 1
    30    7   27 1
    31    8   28 1
    32    8   29 1
    33    9   30 1
    34    9   31 1
    35   10   32 1
    36   10   33 1
    37   12   34 1
    38   12   35 1
    39   13   36 1
    40   13   37 1
    41   13   38 1
    42   14   39 1
    43   16   40 1
    44   16   41 1
    45   18   42 1
    46   18   43 1
    47   18   44 1
    48   19   45 1
    49   20   46 1
    50   20   47 1
    51   21   48 1
    52   23   49 1
    53   23   50 1
    54   23   51 1
@<TRIPOS>MOLECULE
*****
  119   126     0     0     0
SMALL
NO_CHARGES

@<TRIPOS>ATOM
      1 O1         13.3011   -7.7044    0.0000 OS        1 <0>         0.0000
      2 C1         14.0047   -7.2489    0.0000 CT        1 <0>         0.0000
      3 C2         14.7192   -7.6614    0.0000 CT        1 <0>         0.0000
      4 C3         15.4336   -7.2489    0.0000 CT        1 <0>         0.0000
      5 C4         15.4336   -6.4239    0.0000 CT        1 <0>         0.0000
      6 C5         14.7192   -6.0114    0.0000 CT        1 <0>         0.0000
      7 C6         14.0047   -6.4239    0.0000 CT        1 <0>         0.0000
      8 C7         16.1481   -7.6614    0.0000 CT        1 <0>         0.0000
      9 C8         16.8626   -7.2489    0.0000 CT        1 <0>         0.0000
     10 C9         16.8626   -6.4239    0.0000 CT        1 <0>         0.0000
     11 C10        16.1481   -6.0114    0.0000 CT        1 <0>         0.0000
     12 C11        17.5770   -6.0114    0.0000 CT        1 <0>         0.0000
     13 C12        17.5770   -5.1864    0.0000 CT        1 <0>         0.0000
     14 C13        16.8626   -4.7739    0.0000 CT        1 <0>         0.0000
     15 C14        16.1481   -5.1864    0.0000 CT        1 <0>         0.0000
     16 C15        18.3616   -6.2663    0.0000 CT        1 <0>         0.0000
     17 C16        18.8466   -5.5989    0.0000 CT        1 <0>         0.0000
     18 C17        18.3616   -4.9315    0.0000 CT        1 <0>         0.0000
     19 C18        18.6204   -4.1342    0.0000 CM        1 <0>         0.0000
     20 C19        19.4518   -4.1509    0.0000 CM        1 <0>         0.0000
     21 C20        19.7255   -3.3679    0.0000 C         1 <0>         0.0000
     22 O2         19.0655   -2.8656    0.0000 OS        1 <0>         0.0000
     23 C21        18.3839   -3.3380    0.0000 CT        1 <0>         0.0000
     24 O3         20.5063   -3.1334    0.0000 O         1 <0>         0.0000
     25 C22        17.5770   -4.3614    0.0000 CT        1 <0>         0.0000
     26 O4         17.5770   -6.8364    0.0000 OH        1 <0>         0.0000
     27 H1         16.8626   -5.5989    0.0000 HC        1 <0>         0.0000
     28 C23        15.4336   -5.5989    0.0000 CT        1 <0>         0.0000
     29 H2         15.4336   -8.0739    0.0000 HC        1 <0>         0.0000
     30 H3         16.1481   -6.8364    0.0000 HC        1 <0>         0.0000
     31 C24        12.5632   -7.3271    0.0000 CT        1 <0>         0.0000
     32 O5         12.5632   -6.5021    0.0000 OS        1 <0>         0.0000
     33 C25        11.8487   -6.0896    0.0000 CT        1 <0>         0.0000
     34 C26        11.1342   -6.5021    0.0000 CT        1 <0>         0.0000
     35 C27        11.1342   -7.3271    0.0000 CT        1 <0>         0.0000
     36 C28        11.8487   -7.7396    0.0000 CT        1 <0>         0.0000
     37 O6         10.4197   -6.0896    0.0000 OS        1 <0>         0.0000
     38 C29         9.7053   -6.5021    0.0000 CT        1 <0>         0.0000
     39 O7          9.7053   -7.3271    0.0000 OS        1 <0>         0.0000
     40 O8         10.4197   -7.7396    0.0000 OH        1 <0>         0.0000
     41 C30         8.9908   -6.0896    0.0000 CT        1 <0>         0.0000
     42 C31         8.2764   -6.5021    0.0000 CT        1 <0>         0.0000
     43 C32         8.2764   -7.3271    0.0000 CT        1 <0>         0.0000
     44 C33         8.9908   -7.7396    0.0000 CT        1 <0>         0.0000
     45 O9          7.5618   -6.0896    0.0000 OH        1 <0>         0.0000
     46 O10         6.8474   -6.5021    0.0000 OS        1 <0>         0.0000
     47 C34         6.8474   -7.3271    0.0000 CT        1 <0>         0.0000
     48 O11         7.5618   -7.7396    0.0000 OS        1 <0>         0.0000
     49 C35         6.1330   -6.0896    0.0000 CT        1 <0>         0.0000
     50 C36         5.4185   -6.5021    0.0000 CT        1 <0>         0.0000
     51 C37         5.4185   -7.3271    0.0000 CT        1 <0>         0.0000
     52 C38         6.1330   -7.7396    0.0000 CT        1 <0>         0.0000
     53 O12         4.7040   -6.0896    0.0000 OH        1 <0>         0.0000
     54 O13         4.7040   -7.7396    0.0000 OH        1 <0>         0.0000
     55 C39        11.8485   -5.2533    0.0000 CT        1 <0>         0.0000
     56 C40         8.9906   -8.5530    0.0000 CT        1 <0>         0.0000
     57 C41         6.1330   -5.2532    0.0000 CT        1 <0>         0.0000
     58 O14        16.8626   -3.9480    0.0000 OH        1 <0>         0.0000
     59 H4         14.0047   -7.2489    0.0000 H1        1 <0>         0.0000
     60 H5         14.7192   -7.6614    0.0000 HC        1 <0>         0.0000
     61 H6         14.7192   -7.6614    0.0000 HC        1 <0>         0.0000
     62 H7         14.7192   -6.0114    0.0000 HC        1 <0>         0.0000
     63 H8         14.7192   -6.0114    0.0000 HC        1 <0>         0.0000
     64 H9         14.0047   -6.4239    0.0000 HC        1 <0>         0.0000
     65 H10        14.0047   -6.4239    0.0000 HC        1 <0>         0.0000
     66 H11        16.1481   -7.6614    0.0000 HC        1 <0>         0.0000
     67 H12        16.1481   -7.6614    0.0000 HC        1 <0>         0.0000
     68 H13        16.8626   -7.2489    0.0000 HC        1 <0>         0.0000
     69 H14        16.8626   -7.2489    0.0000 HC        1 <0>         0.0000
     70 H15        16.8626   -4.7739    0.0000 H1        1 <0>         0.0000
     71 H16        16.1481   -5.1864    0.0000 HC        1 <0>         0.0000
     72 H17        16.1481   -5.1864    0.0000 HC        1 <0>         0.0000
     73 H18        18.3616   -6.2663    0.0000 HC        1 <0>         0.0000
     74 H19        18.3616   -6.2663    0.0000 HC        1 <0>         0.0000
     75 H20        18.8466   -5.5989    0.0000 HC        1 <0>         0.0000
     76 H21        18.8466   -5.5989    0.0000 HC        1 <0>         0.0000
     77 H22        18.3616   -4.9315    0.0000 HC        1 <0>         0.0000
     78 H23        19.4518   -4.1509    0.0000 HA        1 <0>         0.0000
     79 H24        18.3839   -3.3380    0.0000 H1        1 <0>         0.0000
     80 H25        18.3839   -3.3380    0.0000 H1        1 <0>         0.0000
     81 H26        17.5770   -4.3614    0.0000 HC        1 <0>         0.0000
     82 H27        17.5770   -4.3614    0.0000 HC        1 <0>         0.0000
     83 H28        17.5770   -4.3614    0.0000 HC        1 <0>         0.0000
     84 H29        17.5770   -6.8364    0.0000 HO        1 <0>         0.0000
     85 H30        15.4336   -5.5989    0.0000 HC        1 <0>         0.0000
     86 H31        15.4336   -5.5989    0.0000 HC        1 <0>         0.0000
     87 H32        15.4336   -5.5989    0.0000 HC        1 <0>         0.0000
     88 H33        12.5632   -7.3271    0.0000 H2        1 <0>         0.0000
     89 H34        11.8487   -6.0896    0.0000 H1        1 <0>         0.0000
     90 H35        11.1342   -6.5021    0.0000 H1        1 <0>         0.0000
     91 H36        11.1342   -7.3271    0.0000 H1        1 <0>         0.0000
     92 H37        11.8487   -7.7396    0.0000 HC        1 <0>         0.0000
     93 H38        11.8487   -7.7396    0.0000 HC        1 <0>         0.0000
     94 H39         9.7053   -6.5021    0.0000 H2        1 <0>         0.0000
     95 H40        10.4197   -7.7396    0.0000 HO        1 <0>         0.0000
     96 H41         8.9908   -6.0896    0.0000 HC        1 <0>         0.0000
     97 H42         8.9908   -6.0896    0.0000 HC        1 <0>         0.0000
     98 H43         8.2764   -6.5021    0.0000 H1        1 <0>         0.0000
     99 H44         8.2764   -7.3271    0.0000 H1        1 <0>         0.0000
    100 H45         8.9908   -7.7396    0.0000 H1        1 <0>         0.0000
    101 H46         7.5618   -6.0896    0.0000 HO        1 <0>         0.0000
    102 H47         6.8474   -7.3271    0.0000 H2        1 <0>         0.0000
    103 H48         6.1330   -6.0896    0.0000 H1        1 <0>         0.0000
    104 H49         5.4185   -6.5021    0.0000 H1        1 <0>         0.0000
    105 H50         5.4185   -7.3271    0.0000 H1        1 <0>         0.0000
    106 H51         6.1330   -7.7396    0.0000 HC        1 <0>         0.0000
    107 H52         6.1330   -7.7396    0.0000 HC        1 <0>         0.0000
    108 H53         4.7040   -6.0896    0.0000 HO        1 <0>         0.0000
    109 H54         4.7040   -7.7396    0.0000 HO        1 <0>         0.0000
    110 H55        11.8485   -5.2533    0.0000 HC        1 <0>         0.0000
    111 H56        11.8485   -5.2533    0.0000 HC        1 <0>         0.0000
    112 H57        11.8485   -5.2533    0.0000 HC        1 <0>         0.0000
    113 H58         8.9906   -8.5530    0.0000 HC        1 <0>         0.0000
    114 H59         8.9906   -8.5530    0.0000 HC        1 <0>         0.0000
    115 H60         8.9906   -8.5530    0.0000 HC        1 <0>         0.0000
    116 H61         6.1330   -5.2532    0.0000 HC        1 <0>         0.0000
    117 H62         6.1330   -5.2532    0.0000 HC        1 <0>         0.0000
    118 H63         6.1330   -5.2532    0.0000 HC        1 <0>         0.0000
    119 H64        16.8626   -3.9480    0.0000 HO        1 <0>         0.0000
@<TRIPOS>BOND
     1    1    2 1
     2    2    3 1
     3    3    4 1
     4    4    5 1
     5    5    6 1
     6    6    7 1
     7    2    7 1
     8    4    8 1
     9    8    9 1
    10    9   10 1
    11   10   11 1
    12    5   11 1
    13   10   12 1
    14   12   13 1
    15   13   14 1
    16   14   15 1
    17   11   15 1
    18   12   16 1
    19   16   17 1
    20   17   18 1
    21   13   18 1
    22   18   19 1
    23   19   20 2
    24   20   21 1
    25   21   22 1
    26   22   23 1
    27   19   23 1
    28   21   24 2
    29   13   25 1
    30   12   26 1
    31   10   27 1
    32    5   28 1
    33    4   29 1
    34   11   30 1
    35    1   31 1
    36   31   32 1
    37   32   33 1
    38   33   34 1
    39   34   35 1
    40   35   36 1
    41   31   36 1
    42   34   37 1
    43   37   38 1
    44   38   39 1
    45   35   40 1
    46   38   41 1
    47   41   42 1
    48   42   43 1
    49   43   44 1
    50   39   44 1
    51   42   45 1
    52   46   47 1
    53   47   48 1
    54   43   48 1
    55   46   49 1
    56   49   50 1
    57   50   51 1
    58   51   52 1
    59   47   52 1
    60   50   53 1
    61   51   54 1
    62   33   55 1
    63   44   56 1
    64   49   57 1
    65   14   58 1
    66    2   59 1
    67    3   60 1
    68    3   61 1
    69    6   62 1
    70    6   63 1
    71    7   64 1
    72    7   65 1
    73    8   66 1
    74    8   67 1
    75    9   68 1
    76    9   69 1
    77   14   70 1
    78   15   71 1
    79   15   72 1
    80   16   73 1
    81   16   74 1
    82   17   75 1
    83   17   76 1
    84   18   77 1
    85   20   78 1
    86   23   79 1
    87   23   80 1
    88   25   81 1
    89   25   82 1
    90   25   83 1
    91   26   84 1
    92   28   85 1
    93   28   86 1
    94   28   87 1
    95   31   88 1
    96   33   89 1
    97   34   90 1
    98   35   91 1
    99   36   92 1
   100   36   93 1
   101   38   94 1
   102   40   95 1
   103   41   96 1
   104   41   97 1
   105   42   98 1
   106   43   99 1
   107   44  100 1
   108   45  101 1
   109   47  102 1
   110   49  103 1
   111   50  104 1
   112   51  105 1
   113   52  106 1
   114   52  107 1
   115   53  108 1
   116   54  109 1
   117   55  110 1
   118   55  111 1
   119   55  112 1
   120   56  113 1
   121   56  114 1
   122   56  115 1
   123   57  116 1
   124   57  117 1
   125   57  118 1
   126   58  119 1
@<TRIPOS>MOLECULE
396
   53    56     0     0     0
SMALL
NO_CHARGES

@<TRIPOS>ATOM
      1 O1          6.5848    2.1027    0.0000 O         1 <0>         0.0000
      2 O2          1.6499   -2.0649    0.0000 O         1 <0>         0.0000
      3 C1          6.0989   -0.3718    0.0000 CT        1 <0>         0.0000
      4 C2          6.0989    0.4532    0.0000 CT        1 <0>         0.0000
      5 C3          5.3846   -0.7843    0.0000 CT        1 <0>         0.0000
      6 C4          4.6700   -0.3718    0.0000 CT        1 <0>         0.0000
      7 C5          3.9194   -0.7899    0.0000 CT        1 <0>         0.0000
      8 C6          6.8795    0.7046    0.0000 CT        1 <0>         0.0000
      9 C7          5.3846    0.8656    0.0000 CT        1 <0>         0.0000
     10 C8          4.6700    0.4532    0.0000 CT        1 <0>         0.0000
     11 C9          6.8795   -0.6232    0.0000 CT        1 <0>         0.0000
     12 C10         5.3978   -1.6435    0.0000 CT        1 <0>         0.0000
     13 C11         7.3609    0.0407    0.0000 CT        1 <0>         0.0000
     14 C12         3.9128   -1.6492    0.0000 CM        1 <0>         0.0000
     15 C13         6.0989    1.2781    0.0000 CT        1 <0>         0.0000
     16 C14         4.6569   -2.0789    0.0000 CT        1 <0>         0.0000
     17 C15         3.1548   -0.3246    0.0000 CT        1 <0>         0.0000
     18 C16         3.9257    0.0350    0.0000 CT        1 <0>         0.0000
     19 C17         7.1359    1.4887    0.0000 C         1 <0>         0.0000
     20 C18         2.3728   -0.7602    0.0000 CT        1 <0>         0.0000
     21 C19         3.1411   -2.1027    0.0000 CM        1 <0>         0.0000
     22 C20         2.3659   -1.6552    0.0000 C         1 <0>         0.0000
     23 C21         7.9430    1.6588    0.0000 CT        1 <0>         0.0000
     24 H1          6.1687   -1.0280    0.0000 HC        1 <0>         0.0000
     25 H2          5.9585   -1.1098    0.0000 HC        1 <0>         0.0000
     26 H3          5.2417   -0.0418    0.0000 HC        1 <0>         0.0000
     27 H4          6.8795    0.7046    0.0000 HC        1 <0>         0.0000
     28 H5          5.3846    0.8656    0.0000 HC        1 <0>         0.0000
     29 H6          5.3846    0.8656    0.0000 HC        1 <0>         0.0000
     30 H7          4.6700    0.4532    0.0000 HC        1 <0>         0.0000
     31 H8          4.6700    0.4532    0.0000 HC        1 <0>         0.0000
     32 H9          6.8795   -0.6232    0.0000 HC        1 <0>         0.0000
     33 H10         6.8795   -0.6232    0.0000 HC        1 <0>         0.0000
     34 H11         5.3978   -1.6435    0.0000 HC        1 <0>         0.0000
     35 H12         5.3978   -1.6435    0.0000 HC        1 <0>         0.0000
     36 H13         7.3609    0.0407    0.0000 HC        1 <0>         0.0000
     37 H14         7.3609    0.0407    0.0000 HC        1 <0>         0.0000
     38 H15         6.0989    1.2781    0.0000 HC        1 <0>         0.0000
     39 H16         6.0989    1.2781    0.0000 HC        1 <0>         0.0000
     40 H17         6.0989    1.2781    0.0000 HC        1 <0>         0.0000
     41 H18         4.6569   -2.0789    0.0000 HC        1 <0>         0.0000
     42 H19         4.6569   -2.0789    0.0000 HC        1 <0>         0.0000
     43 H20         3.1548   -0.3246    0.0000 HC        1 <0>         0.0000
     44 H21         3.1548   -0.3246    0.0000 HC        1 <0>         0.0000
     45 H22         3.9257    0.0350    0.0000 HC        1 <0>         0.0000
     46 H23         3.9257    0.0350    0.0000 HC        1 <0>         0.0000
     47 H24         3.9257    0.0350    0.0000 HC        1 <0>         0.0000
     48 H25         2.3728   -0.7602    0.0000 HC        1 <0>         0.0000
     49 H26         2.3728   -0.7602    0.0000 HC        1 <0>         0.0000
     50 H27         3.1411   -2.1027    0.0000 HA        1 <0>         0.0000
     51 H28         7.9430    1.6588    0.0000 HC        1 <0>         0.0000
     52 H29         7.9430    1.6588    0.0000 HC        1 <0>         0.0000
     53 H30         7.9430    1.6588    0.0000 HC        1 <0>         0.0000
@<TRIPOS>BOND
     1    1   19 2
     2    2   22 2
     3    3    4 1
     4    3    5 1
     5    3   11 1
     6    3   24 1
     7    4    8 1
     8    4    9 1
     9    4   15 1
    10    5    6 1
    11    5   12 1
    12    5   25 1
    13    6    7 1
    14    6   10 1
    15    6   26 1
    16    7   14 1
    17    7   17 1
    18    7   18 1
    19    8   13 1
    20    8   19 1
    21    9   10 1
    22   11   13 1
    23   12   16 1
    24   14   16 1
    25   14   21 2
    26   17   20 1
    27   19   23 1
    28   20   22 1
    29   21   22 1
    30    8   27 1
    31    9   28 1
    32    9   29 1
    33   10   30 1
    34   10   31 1
    35   11   32 1
    36   11   33 1
    37   12   34 1
    38   12   35 1
    39   13   36 1
    40   13   37 1
    41   15   38 1
    42   15   39 1
    43   15   40 1
    44   16   41 1
    45   16   42 1
    46   17   43 1
    47   17   44 1
    48   18   45 1
    49   18   46 1
    50   18   47 1
    51   20   48 1
    52   20   49 1
    53   21   50 1
    54   23   51 1
    55   23   52 1
    56   23   53 1
@<TRIPOS>MOLECULE
*****
   79    80     0     0     0
SMALL
NO_CHARGES

 
@<TRIPOS>ATOM
      1 C1         10.8277   -9.6141    0.0000 CT        1 <0>         0.0000
      2 C2         10.8277  -10.4413    0.0000 CT        1 <0>         0.0000
      3 C3         11.5422  -10.8528    0.0000 CT        1 <0>         0.0000
      4 O1         12.2568  -10.4413    0.0000 OS        1 <0>         0.0000
      5 C4         12.2568   -9.6141    0.0000 CT        1 <0>         0.0000
      6 C5         11.5422   -9.1984    0.0000 CT        1 <0>         0.0000
      7 C6          9.4019  -10.4454    0.0000 CJ        1 <0>         0.0000
      8 C7         10.1170  -10.8612    0.0000 CT        1 <0>         0.0000
      9 O2         10.1138   -9.2047    0.0000 OH        1 <0>         0.0000
     10 O3         11.5343   -8.3711    0.0000 OH        1 <0>         0.0000
     11 C8         12.9686   -9.1984    0.0000 CT        1 <0>         0.0000
     12 C9         13.6835   -9.6058    0.0000 CM        1 <0>         0.0000
     13 C10        14.3985   -9.1943    0.0000 CM        1 <0>         0.0000
     14 C11        15.1135   -9.6016    0.0000 C         1 <0>         0.0000
     15 O4         15.8243   -9.1901    0.0000 OS        1 <0>         0.0000
     16 C12        16.5392   -9.5975    0.0000 CT        1 <0>         0.0000
     17 C13        17.2542   -9.1859    0.0000 CT        1 <0>         0.0000
     18 C14        17.9692   -9.5933    0.0000 CT        1 <0>         0.0000
     19 C15        18.6841   -9.1818    0.0000 CT        1 <0>         0.0000
     20 C16        19.3991   -9.5892    0.0000 CT        1 <0>         0.0000
     21 C17        20.1141   -9.1777    0.0000 CT        1 <0>         0.0000
     22 C18        20.8291   -9.5850    0.0000 CT        1 <0>         0.0000
     23 C19        21.5398   -9.1734    0.0000 CT        1 <0>         0.0000
     24 C20        22.2549   -9.5809    0.0000 C         1 <0>         0.0000
     25 O5         22.9699   -9.1652    0.0000 OH        1 <0>         0.0000
     26 C21        13.6853  -10.4330    0.0000 CT        1 <0>         0.0000
     27 O6         15.1153  -10.4288    0.0000 O         1 <0>         0.0000
     28 O7         22.2585  -10.4080    0.0000 O         1 <0>         0.0000
     29 C22         8.6845  -10.8602    0.0000 CJ        1 <0>         0.0000
     30 C23         7.9680  -10.4437    0.0000 CT        1 <0>         0.0000
     31 C24         7.2506  -10.8585    0.0000 CT        1 <0>         0.0000
     32 C25         6.5341  -10.4420    0.0000 CT        1 <0>         0.0000
     33 O8          9.4144  -11.2352    0.0000 OS        1 <0>         0.0000
     34 O9          7.2496  -11.6858    0.0000 OH        1 <0>         0.0000
     35 C26         7.9690   -9.6166    0.0000 CT        1 <0>         0.0000
     36 H1         10.8277   -9.6141    0.0000 H1        1 <0>         0.0000
     37 H2         10.8277  -10.4413    0.0000 HC        1 <0>         0.0000
     38 H3         11.5422  -10.8528    0.0000 H1        1 <0>         0.0000
     39 H4         11.5422  -10.8528    0.0000 H1        1 <0>         0.0000
     40 H5         12.2568   -9.6141    0.0000 H1        1 <0>         0.0000
     41 H6         11.5422   -9.1984    0.0000 H1        1 <0>         0.0000
     42 H7          9.4019  -10.4454    0.0000 H1        1 <0>         0.0000
     43 H8         10.1170  -10.8612    0.0000 HC        1 <0>         0.0000
     44 H9         10.1170  -10.8612    0.0000 HC        1 <0>         0.0000
     45 H10        10.1138   -9.2047    0.0000 HO        1 <0>         0.0000
     46 H11        11.5343   -8.3711    0.0000 HO        1 <0>         0.0000
     47 H12        12.9686   -9.1984    0.0000 HC        1 <0>         0.0000
     48 H13        12.9686   -9.1984    0.0000 HC        1 <0>         0.0000
     49 H14        14.3985   -9.1943    0.0000 HA        1 <0>         0.0000
     50 H15        16.5392   -9.5975    0.0000 H1        1 <0>         0.0000
     51 H16        16.5392   -9.5975    0.0000 H1        1 <0>         0.0000
     52 H17        17.2542   -9.1859    0.0000 HC        1 <0>         0.0000
     53 H18        17.2542   -9.1859    0.0000 HC        1 <0>         0.0000
     54 H19        17.9692   -9.5933    0.0000 HC        1 <0>         0.0000
     55 H20        17.9692   -9.5933    0.0000 HC        1 <0>         0.0000
     56 H21        18.6841   -9.1818    0.0000 HC        1 <0>         0.0000
     57 H22        18.6841   -9.1818    0.0000 HC        1 <0>         0.0000
     58 H23        19.3991   -9.5892    0.0000 HC        1 <0>         0.0000
     59 H24        19.3991   -9.5892    0.0000 HC        1 <0>         0.0000
     60 H25        20.1141   -9.1777    0.0000 HC        1 <0>         0.0000
     61 H26        20.1141   -9.1777    0.0000 HC        1 <0>         0.0000
     62 H27        20.8291   -9.5850    0.0000 HC        1 <0>         0.0000
     63 H28        20.8291   -9.5850    0.0000 HC        1 <0>         0.0000
     64 H29        21.5398   -9.1734    0.0000 HC        1 <0>         0.0000
     65 H30        21.5398   -9.1734    0.0000 HC        1 <0>         0.0000
     66 H31        22.9699   -9.1652    0.0000 HO        1 <0>         0.0000
     67 H32        13.6853  -10.4330    0.0000 HC        1 <0>         0.0000
     68 H33        13.6853  -10.4330    0.0000 HC        1 <0>         0.0000
     69 H34        13.6853  -10.4330    0.0000 HC        1 <0>         0.0000
     70 H35         8.6845  -10.8602    0.0000 H1        1 <0>         0.0000
     71 H36         7.9680  -10.4437    0.0000 HC        1 <0>         0.0000
     72 H37         7.2506  -10.8585    0.0000 H1        1 <0>         0.0000
     73 H38         6.5341  -10.4420    0.0000 HC        1 <0>         0.0000
     74 H39         6.5341  -10.4420    0.0000 HC        1 <0>         0.0000
     75 H40         6.5341  -10.4420    0.0000 HC        1 <0>         0.0000
     76 H41         7.2496  -11.6858    0.0000 HO        1 <0>         0.0000
     77 H42         7.9690   -9.6166    0.0000 HC        1 <0>         0.0000
     78 H43         7.9690   -9.6166    0.0000 HC        1 <0>         0.0000
     79 H44         7.9690   -9.6166    0.0000 HC        1 <0>         0.0000
@<TRIPOS>BOND
     1   31   32 1
     2    3    4 1
     3    7   33 1
     4   29   33 1
     5    4    5 1
     6   31   34 1
     7    5    6 1
     8   30   35 1
     9    7    8 1
    10    2    8 1
    11    1    9 1
    12    6   10 1
    13    5   11 1
    14   11   12 1
    15   12   13 2
    16   13   14 1
    17   14   15 1
    18   15   16 1
    19   16   17 1
    20   17   18 1
    21   18   19 1
    22   19   20 1
    23   20   21 1
    24   21   22 1
    25   22   23 1
    26   23   24 1
    27   24   25 1
    28   12   26 1
    29   14   27 2
    30   24   28 2
    31    7   29 1
    32    1    2 1
    33   29   30 1
    34    1    6 1
    35   30   31 1
    36    2    3 1
    37    1   36 1
    38    2   37 1
    39    3   38 1
    40    3   39 1
    41    5   40 1
    42    6   41 1
    43    7   42 1
    44    8   43 1
    45    8   44 1
    46    9   45 1
    47   10   46 1
    48   11   47 1
    49   11   48 1
    50   13   49 1
    51   16   50 1
    52   16   51 1
    53   17   52 1
    54   17   53 1
    55   18   54 1
    56   18   55 1
    57   19   56 1
    58   19   57 1
    59   20   58 1
    60   20   59 1
    61   21   60 1
    62   21   61 1
    63   22   62 1
    64   22   63 1
    65   23   64 1
    66   23   65 1
    67   25   66 1
    68   26   67 1
    69   26   68 1
    70   26   69 1
    71   29   70 1
    72   30   71 1
    73   31   72 1
    74   32   73 1
    75   32   74 1
    76   32   75 1
    77   34   76 1
    78   35   77 1
    79   35   78 1
    80   35   79 1
@<TRIPOS>MOLECULE
*****
   50    50     0     0     0
SMALL
NO_CHARGES

@<TRIPOS>ATOM
      1 C1         -2.3125    1.8250    0.0000 CA        1 <0>         0.0000
      2 C2         -3.0270    1.4125    0.0000 CA        1 <0>         0.0000
      3 C3         -3.0270    0.5875    0.0000 CA        1 <0>         0.0000
      4 C4         -2.3125    0.1750    0.0000 CA        1 <0>         0.0000
      5 C5         -1.5980    0.5875    0.0000 CA        1 <0>         0.0000
      6 C6         -1.5980    1.4125    0.0000 CA        1 <0>         0.0000
      7 C7         -2.3125    2.6500    0.0000 CT        1 <0>         0.0000
      8 C8         -3.7414    1.8250    0.0000 CT        1 <0>         0.0000
      9 C9         -4.4559    0.5875    0.0000 CT        1 <0>         0.0000
     10 C10        -0.8836    0.1750    0.0000 CT        1 <0>         0.0000
     11 C11        -0.8836    1.8250    0.0000 CM        1 <0>         0.0000
     12 C12        -0.1691    1.4125    0.0000 CM        1 <0>         0.0000
     13 C13         1.2599    1.4125    0.0000 CM        1 <0>         0.0000
     14 C14         1.9743    1.8250    0.0000 CM        1 <0>         0.0000
     15 C15         2.6888    1.4125    0.0000 CM        1 <0>         0.0000
     16 C16         4.1177    1.4125    0.0000 CM        1 <0>         0.0000
     17 O1         -3.7414    0.1750    0.0000 OS        1 <0>         0.0000
     18 O2          4.8322    2.6500    0.0000 O         1 <0>         0.0000
     19 C17         4.8322    1.8250    0.0000 C         1 <0>         0.0000
     20 O3          5.5467    1.4125    0.0000 OH        1 <0>         0.0000
     21 C18         0.5454    1.8250    0.0000 CM        1 <0>         0.0000
     22 C19         0.5454    2.6500    0.0000 CT        1 <0>         0.0000
     23 C20         3.4033    1.8250    0.0000 CM        1 <0>         0.0000
     24 C21         3.4033    2.6500    0.0000 CT        1 <0>         0.0000
     25 H1         -2.3125    0.1750    0.0000 HA        1 <0>         0.0000
     26 H2         -2.3125    2.6500    0.0000 HC        1 <0>         0.0000
     27 H3         -2.3125    2.6500    0.0000 HC        1 <0>         0.0000
     28 H4         -2.3125    2.6500    0.0000 HC        1 <0>         0.0000
     29 H5         -3.7414    1.8250    0.0000 HC        1 <0>         0.0000
     30 H6         -3.7414    1.8250    0.0000 HC        1 <0>         0.0000
     31 H7         -3.7414    1.8250    0.0000 HC        1 <0>         0.0000
     32 H8         -4.4559    0.5875    0.0000 H1        1 <0>         0.0000
     33 H9         -4.4559    0.5875    0.0000 H1        1 <0>         0.0000
     34 H10        -4.4559    0.5875    0.0000 H1        1 <0>         0.0000
     35 H11        -0.8836    0.1750    0.0000 HC        1 <0>         0.0000
     36 H12        -0.8836    0.1750    0.0000 HC        1 <0>         0.0000
     37 H13        -0.8836    0.1750    0.0000 HC        1 <0>         0.0000
     38 H14        -0.8836    1.8250    0.0000 HA        1 <0>         0.0000
     39 H15        -0.1691    1.4125    0.0000 HA        1 <0>         0.0000
     40 H16         1.2599    1.4125    0.0000 HA        1 <0>         0.0000
     41 H17         1.9743    1.8250    0.0000 HA        1 <0>         0.0000
     42 H18         2.6888    1.4125    0.0000 HA        1 <0>         0.0000
     43 H19         4.1177    1.4125    0.0000 HA        1 <0>         0.0000
     44 H20         5.5467    1.4125    0.0000 HO        1 <0>         0.0000
     45 H21         0.5454    2.6500    0.0000 HC        1 <0>         0.0000
     46 H22         0.5454    2.6500    0.0000 HC        1 <0>         0.0000
     47 H23         0.5454    2.6500    0.0000 HC        1 <0>         0.0000
     48 H24         3.4033    2.6500    0.0000 HC        1 <0>         0.0000
     49 H25         3.4033    2.6500    0.0000 HC        1 <0>         0.0000
     50 H26         3.4033    2.6500    0.0000 HC        1 <0>         0.0000
@<TRIPOS>BOND
     1    1    2 ar
     2    1    6 ar
     3    2    3 ar
     4    3    4 ar
     5    4    5 ar
     6    5    6 ar
     7    1    7 1
     8    2    8 1
     9    3   17 1
    10    9   17 1
    11    5   10 1
    12    6   11 1
    13   11   12 2
    14   12   21 1
    15   13   21 2
    16   13   14 1
    17   14   15 2
    18   15   23 1
    19   16   23 2
    20   16   19 1
    21   18   19 2
    22   19   20 1
    23   21   22 1
    24   23   24 1
    25    4   25 1
    26    7   26 1
    27    7   27 1
    28    7   28 1
    29    8   29 1
    30    8   30 1
    31    8   31 1
    32    9   32 1
    33    9   33 1
    34    9   34 1
    35   10   35 1
    36   10   36 1
    37   10   37 1
    38   11   38 1
    39   12   39 1
    40   13   40 1
    41   14   41 1
    42   15   42 1
    43   16   43 1
    44   20   44 1
    45   22   45 1
    46   22   46 1
    47   22   47 1
    48   24   48 1
    49   24   49 1
    50   24   50 1
@<TRIPOS>MOLECULE
461
   33    34     0     0     0
SMALL
NO_CHARGES

@<TRIPOS>ATOM
      1 O1          8.1336    1.2429    0.0000 OS        1 <0>         0.0000
      2 O2          2.3641   -1.2516    0.0000 O         1 <0>         0.0000
      3 C1          4.5073   -0.0143    0.0000 CA        1 <0>         0.0000
      4 C2          3.7929   -0.4267    0.0000 CT        1 <0>         0.0000
      5 C3          5.9361   -0.0143    0.0000 CB        1 <0>         0.0000
      6 C4          5.9361    0.8106    0.0000 CB        1 <0>         0.0000
      7 C5          5.2216   -0.4267    0.0000 CA        1 <0>         0.0000
      8 C6          3.0786   -0.0143    0.0000 CT        1 <0>         0.0000
      9 C7          4.5073    0.8106    0.0000 CA        1 <0>         0.0000
     10 C8          5.2216    1.2230    0.0000 CA        1 <0>         0.0000
     11 C9          6.6734   -0.4553    0.0000 CA        1 <0>         0.0000
     12 C10         6.6734    1.2516    0.0000 CA        1 <0>         0.0000
     13 C11         7.4209    0.8278    0.0000 CA        1 <0>         0.0000
     14 C12         7.4209   -0.0314    0.0000 CA        1 <0>         0.0000
     15 C13         2.3641   -0.4267    0.0000 C         1 <0>         0.0000
     16 C14         1.6498   -0.0143    0.0000 CT        1 <0>         0.0000
     17 C15         8.8496    0.8333    0.0000 CT        1 <0>         0.0000
     18 H1          3.7929   -0.4267    0.0000 HC        1 <0>         0.0000
     19 H2          3.7929   -0.4267    0.0000 HC        1 <0>         0.0000
     20 H3          5.2216   -0.4267    0.0000 HA        1 <0>         0.0000
     21 H4          3.0786   -0.0143    0.0000 HC        1 <0>         0.0000
     22 H5          3.0786   -0.0143    0.0000 HC        1 <0>         0.0000
     23 H6          4.5073    0.8106    0.0000 HA        1 <0>         0.0000
     24 H7          5.2216    1.2230    0.0000 HA        1 <0>         0.0000
     25 H8          6.6734   -0.4553    0.0000 HA        1 <0>         0.0000
     26 H9          6.6734    1.2516    0.0000 HA        1 <0>         0.0000
     27 H10         7.4209   -0.0314    0.0000 HA        1 <0>         0.0000
     28 H11         1.6498   -0.0143    0.0000 HC        1 <0>         0.0000
     29 H12         1.6498   -0.0143    0.0000 HC        1 <0>         0.0000
     30 H13         1.6498   -0.0143    0.0000 HC        1 <0>         0.0000
     31 H14         8.8496    0.8333    0.0000 H1        1 <0>         0.0000
     32 H15         8.8496    0.8333    0.0000 H1        1 <0>         0.0000
     33 H16         8.8496    0.8333    0.0000 H1        1 <0>         0.0000
@<TRIPOS>BOND
     1    1   13 1
     2    1   17 1
     3    2   15 2
     4    3    4 1
     5    3    7 ar
     6    3    9 ar
     7    4    8 1
     8    5    6 ar
     9    5    7 ar
    10    5   11 ar
    11    6   10 ar
    12    6   12 ar
    13    8   15 1
    14    9   10 ar
    15   11   14 ar
    16   12   13 ar
    17   13   14 ar
    18   15   16 1
    19    4   18 1
    20    4   19 1
    21    7   20 1
    22    8   21 1
    23    8   22 1
    24    9   23 1
    25   10   24 1
    26   11   25 1
    27   12   26 1
    28   14   27 1
    29   16   28 1
    30   16   29 1
    31   16   30 1
    32   17   31 1
    33   17   32 1
    34   17   33 1
@<TRIPOS>MOLECULE
466
   77    85     0     0     0
SMALL
NO_CHARGES

@<TRIPOS>ATOM
      1 O1          0.9422    0.6555    0.0000 OS        1 <0>         0.0000
      2 O2          0.9422    8.6860    0.0000 OS        1 <0>         0.0000
      3 O3          1.1537    2.7650    0.0000 OS        1 <0>         0.0000
      4 O4          1.1537   10.7954    0.0000 OS        1 <0>         0.0000
      5 O5          3.4066    1.3061    0.0000 OH        1 <0>         0.0000
      6 O6          5.6444    2.8381    0.0000 OS        1 <0>         0.0000
      7 O7          3.4066    9.3365    0.0000 OH        1 <0>         0.0000
      8 O8          5.6444   10.8685    0.0000 OS        1 <0>         0.0000
      9 O9          0.0000    1.8881    0.0000 O         1 <0>         0.0000
     10 O10         0.0000    9.9185    0.0000 O         1 <0>         0.0000
     11 O11         2.7002    5.7038    0.0000 OH        1 <0>         0.0000
     12 O12         5.8433    1.3267    0.0000 O         1 <0>         0.0000
     13 O13         5.8433    9.3572    0.0000 O         1 <0>         0.0000
     14 C1          1.8992    1.9772    0.0000 CT        1 <0>         0.0000
     15 C2          1.3520    1.3663    0.0000 CJ        1 <0>         0.0000
     16 C3          1.8992   10.0076    0.0000 CT        1 <0>         0.0000
     17 C4          2.6528    1.6416    0.0000 CT        1 <0>         0.0000
     18 C5          1.3520    9.3967    0.0000 CJ        1 <0>         0.0000
     19 C6          1.7627    0.6564    0.0000 CJ        1 <0>         0.0000
     20 C7          2.6528    9.6721    0.0000 CT        1 <0>         0.0000
     21 C8          1.7627    8.6869    0.0000 CJ        1 <0>         0.0000
     22 C9          1.9854    2.7977    0.0000 CT        1 <0>         0.0000
     23 C10         2.5651    0.8262    0.0000 CT        1 <0>         0.0000
     24 C11         3.9194    2.6673    0.0000 CT        1 <0>         0.0000
     25 C12         1.9854   10.8281    0.0000 CT        1 <0>         0.0000
     26 C13         2.5651    8.8567    0.0000 CT        1 <0>         0.0000
     27 C14         4.1329    3.4642    0.0000 CT        1 <0>         0.0000
     28 C15         3.5252    4.2748    0.0000 CT        1 <0>         0.0000
     29 C16         3.9194   10.6977    0.0000 CT        1 <0>         0.0000
     30 C17         4.1329   11.4946    0.0000 CT        1 <0>         0.0000
     31 C18         0.8169    2.0038    0.0000 C         1 <0>         0.0000
     32 C19         3.5252   12.3053    0.0000 CT        1 <0>         0.0000
     33 C20         1.8130    1.1567    0.0000 CT        1 <0>         0.0000
     34 C21         0.8169   10.0343    0.0000 C         1 <0>         0.0000
     35 C22         1.8130    9.1872    0.0000 CT        1 <0>         0.0000
     36 C23         5.4308    2.0412    0.0000 C         1 <0>         0.0000
     37 C24         3.1127    4.9893    0.0000 CT        1 <0>         0.0000
     38 C25         5.4308   10.0717    0.0000 C         1 <0>         0.0000
     39 C26         3.1127   13.0198    0.0000 CM        1 <0>         0.0000
     40 C27         3.8272    5.4018    0.0000 CT        1 <0>         0.0000
     41 C28         2.3982    4.5768    0.0000 CT        1 <0>         0.0000
     42 C29         3.5252   13.7342    0.0000 CT        1 <0>         0.0000
     43 C30         2.2877   13.0198    0.0000 CM        1 <0>         0.0000
     44 H1          1.8317    0.0000    0.0000 H1        1 <0>         0.0000
     45 H2          2.0544    3.4541    0.0000 H1        1 <0>         0.0000
     46 H3          2.0544   11.4845    0.0000 H1        1 <0>         0.0000
     47 H4          3.4066    1.3061    0.0000 HO        1 <0>         0.0000
     48 H5          3.4066    9.3365    0.0000 HO        1 <0>         0.0000
     49 H6          2.7002    5.7038    0.0000 HO        1 <0>         0.0000
     50 H7          1.7627    8.6869    0.0000 H1        1 <0>         0.0000
     51 H8          2.5651    0.8262    0.0000 HC        1 <0>         0.0000
     52 H9          2.5651    0.8262    0.0000 HC        1 <0>         0.0000
     53 H10         3.9194    2.6673    0.0000 HC        1 <0>         0.0000
     54 H11         2.5651    8.8567    0.0000 HC        1 <0>         0.0000
     55 H12         2.5651    8.8567    0.0000 HC        1 <0>         0.0000
     56 H13         4.1329    3.4642    0.0000 H1        1 <0>         0.0000
     57 H14         3.5252    4.2748    0.0000 HC        1 <0>         0.0000
     58 H15         3.9194   10.6977    0.0000 HC        1 <0>         0.0000
     59 H16         4.1329   11.4946    0.0000 H1        1 <0>         0.0000
     60 H17         3.5252   12.3053    0.0000 HC        1 <0>         0.0000
     61 H18         1.8130    1.1567    0.0000 HC        1 <0>         0.0000
     62 H19         1.8130    1.1567    0.0000 HC        1 <0>         0.0000
     63 H20         1.8130    1.1567    0.0000 HC        1 <0>         0.0000
     64 H21         1.8130    9.1872    0.0000 HC        1 <0>         0.0000
     65 H22         1.8130    9.1872    0.0000 HC        1 <0>         0.0000
     66 H23         1.8130    9.1872    0.0000 HC        1 <0>         0.0000
     67 H24         3.8272    5.4018    0.0000 HC        1 <0>         0.0000
     68 H25         3.8272    5.4018    0.0000 HC        1 <0>         0.0000
     69 H26         3.8272    5.4018    0.0000 HC        1 <0>         0.0000
     70 H27         2.3982    4.5768    0.0000 HC        1 <0>         0.0000
     71 H28         2.3982    4.5768    0.0000 HC        1 <0>         0.0000
     72 H29         2.3982    4.5768    0.0000 HC        1 <0>         0.0000
     73 H30         3.5252   13.7342    0.0000 HC        1 <0>         0.0000
     74 H31         3.5252   13.7342    0.0000 HC        1 <0>         0.0000
     75 H32         3.5252   13.7342    0.0000 HC        1 <0>         0.0000
     76 H33         2.2877   13.0198    0.0000 HA        1 <0>         0.0000
     77 H34         2.2877   13.0198    0.0000 HA        1 <0>         0.0000
@<TRIPOS>BOND
     1    1   15 1
     2    1   19 1
     3    2   18 1
     4    2   21 1
     5    3   22 1
     6    3   31 1
     7    4   25 1
     8    4   34 1
     9    5   17 1
    10    6   27 1
    11    6   36 1
    12    7   20 1
    13    8   30 1
    14    8   38 1
    15    9   31 2
    16   10   34 2
    17   11   37 1
    18   12   36 2
    19   13   38 2
    20   14   15 1
    21   14   17 1
    22   14   22 1
    23   14   33 1
    24   15   19 1
    25   15   31 1
    26   16   18 1
    27   16   20 1
    28   16   25 1
    29   16   35 1
    30   17   23 1
    31   17   24 1
    32   18   21 1
    33   18   34 1
    34   19   23 1
    35   19   44 1
    36   20   26 1
    37   20   29 1
    38   21   26 1
    39   22   27 1
    40   22   45 1
    41   24   28 1
    42   24   36 1
    43   25   30 1
    44   25   46 1
    45   27   28 1
    46   28   37 1
    47   29   32 1
    48   29   38 1
    49   30   32 1
    50   32   39 1
    51   37   40 1
    52   37   41 1
    53   39   42 1
    54   39   43 2
    55    5   47 1
    56    7   48 1
    57   11   49 1
    58   21   50 1
    59   23   51 1
    60   23   52 1
    61   24   53 1
    62   26   54 1
    63   26   55 1
    64   27   56 1
    65   28   57 1
    66   29   58 1
    67   30   59 1
    68   32   60 1
    69   33   61 1
    70   33   62 1
    71   33   63 1
    72   35   64 1
    73   35   65 1
    74   35   66 1
    75   40   67 1
    76   40   68 1
    77   40   69 1
    78   41   70 1
    79   41   71 1
    80   41   72 1
    81   42   73 1
    82   42   74 1
    83   42   75 1
    84   43   76 1
    85   43   77 1
@<TRIPOS>MOLECULE
*****
   53    55     0     0     0
SMALL
NO_CHARGES

@<TRIPOS>ATOM
      1 C1          7.6955   -5.8135    0.0000 CT        1 <0>         0.0000
      2 C2          8.4043   -6.2242    0.0000 CA        1 <0>         0.0000
      3 C3          6.9797   -6.2242    0.0000 CT        1 <0>         0.0000
      4 C4          7.6989   -4.9925    0.0000 CM        1 <0>         0.0000
      5 C5          8.4043   -7.0523    0.0000 CA        1 <0>         0.0000
      6 C6          9.1200   -5.8135    0.0000 CA        1 <0>         0.0000
      7 C7          6.9797   -7.0523    0.0000 CT        1 <0>         0.0000
      8 C8          6.2674   -5.8101    0.0000 CT        1 <0>         0.0000
      9 C9          6.9833   -4.5786    0.0000 CM        1 <0>         0.0000
     10 O1          7.6955   -7.4627    0.0000 OS        1 <0>         0.0000
     11 C10         9.1200   -7.4627    0.0000 CA        1 <0>         0.0000
     12 C11         9.8289   -6.2242    0.0000 CA        1 <0>         0.0000
     13 O2          9.1200   -4.9891    0.0000 OH        1 <0>         0.0000
     14 C12         6.2674   -4.9891    0.0000 CT        1 <0>         0.0000
     15 C13         6.9867   -3.7575    0.0000 CT        1 <0>         0.0000
     16 C14         9.8289   -7.0523    0.0000 CA        1 <0>         0.0000
     17 C15        10.5411   -7.4627    0.0000 CT        1 <0>         0.0000
     18 C16        11.2569   -7.0487    0.0000 CT        1 <0>         0.0000
     19 C17        11.9656   -7.4593    0.0000 CT        1 <0>         0.0000
     20 C18        12.6814   -7.0487    0.0000 CT        1 <0>         0.0000
     21 C19        13.3901   -7.4593    0.0000 CT        1 <0>         0.0000
     22 H1          8.3657   -5.3925    0.0000 HC        1 <0>         0.0000
     23 H2          6.1587   -6.7681    0.0000 HC        1 <0>         0.0000
     24 C20         6.9797   -7.8773    0.0000 CT        1 <0>         0.0000
     25 C21         6.2652   -7.4648    0.0000 CT        1 <0>         0.0000
     26 H3          7.6989   -4.9925    0.0000 HA        1 <0>         0.0000
     27 H4          6.2674   -5.8101    0.0000 HC        1 <0>         0.0000
     28 H5          6.2674   -5.8101    0.0000 HC        1 <0>         0.0000
     29 H6          9.1200   -7.4627    0.0000 HA        1 <0>         0.0000
     30 H7          9.8289   -6.2242    0.0000 HA        1 <0>         0.0000
     31 H8          9.1200   -4.9891    0.0000 HO        1 <0>         0.0000
     32 H9          6.2674   -4.9891    0.0000 HC        1 <0>         0.0000
     33 H10         6.2674   -4.9891    0.0000 HC        1 <0>         0.0000
     34 H11         6.9867   -3.7575    0.0000 HC        1 <0>         0.0000
     35 H12         6.9867   -3.7575    0.0000 HC        1 <0>         0.0000
     36 H13         6.9867   -3.7575    0.0000 HC        1 <0>         0.0000
     37 H14        10.5411   -7.4627    0.0000 HC        1 <0>         0.0000
     38 H15        10.5411   -7.4627    0.0000 HC        1 <0>         0.0000
     39 H16        11.2569   -7.0487    0.0000 HC        1 <0>         0.0000
     40 H17        11.2569   -7.0487    0.0000 HC        1 <0>         0.0000
     41 H18        11.9656   -7.4593    0.0000 HC        1 <0>         0.0000
     42 H19        11.9656   -7.4593    0.0000 HC        1 <0>         0.0000
     43 H20        12.6814   -7.0487    0.0000 HC        1 <0>         0.0000
     44 H21        12.6814   -7.0487    0.0000 HC        1 <0>         0.0000
     45 H22        13.3901   -7.4593    0.0000 HC        1 <0>         0.0000
     46 H23        13.3901   -7.4593    0.0000 HC        1 <0>         0.0000
     47 H24        13.3901   -7.4593    0.0000 HC        1 <0>         0.0000
     48 H25         6.9797   -7.8773    0.0000 HC        1 <0>         0.0000
     49 H26         6.9797   -7.8773    0.0000 HC        1 <0>         0.0000
     50 H27         6.9797   -7.8773    0.0000 HC        1 <0>         0.0000
     51 H28         6.2652   -7.4648    0.0000 HC        1 <0>         0.0000
     52 H29         6.2652   -7.4648    0.0000 HC        1 <0>         0.0000
     53 H30         6.2652   -7.4648    0.0000 HC        1 <0>         0.0000
@<TRIPOS>BOND
     1    1    2 1
     2    1    3 1
     3    1    4 1
     4    2    5 ar
     5    2    6 ar
     6    3    7 1
     7    3    8 1
     8    4    9 2
     9    5   10 1
    10    5   11 ar
    11    6   12 ar
    12    6   13 1
    13    8   14 1
    14    9   15 1
    15   11   16 ar
    16   16   17 1
    17   17   18 1
    18   18   19 1
    19   19   20 1
    20   20   21 1
    21    7   10 1
    22    9   14 1
    23   12   16 ar
    24    1   22 1
    25    3   23 1
    26    7   24 1
    27    7   25 1
    28    4   26 1
    29    8   27 1
    30    8   28 1
    31   11   29 1
    32   12   30 1
    33   13   31 1
    34   14   32 1
    35   14   33 1
    36   15   34 1
    37   15   35 1
    38   15   36 1
    39   17   37 1
    40   17   38 1
    41   18   39 1
    42   18   40 1
    43   19   41 1
    44   19   42 1
    45   20   43 1
    46   20   44 1
    47   21   45 1
    48   21   46 1
    49   21   47 1
    50   24   48 1
    51   24   49 1
    52   24   50 1
    53   25   51 1
    54   25   52 1
    55   25   53 1
@<TRIPOS>MOLECULE
486
   63    65     0     0     0
SMALL
NO_CHARGES

@<TRIPOS>ATOM
      1 O1          8.8492   -1.5184    0.0000 OS        1 <0>         0.0000
      2 O2          9.5737    2.2512    0.0000 O         1 <0>         0.0000
      3 O3          7.4068    0.9851    0.0000 OH        1 <0>         0.0000
      4 C1          9.5637   -0.2809    0.0000 CT        1 <0>         0.0000
      5 C2          8.8492    0.1316    0.0000 CT        1 <0>         0.0000
      6 C3          9.5637   -1.1059    0.0000 CT        1 <0>         0.0000
      7 C4         10.3145    0.1372    0.0000 CT        1 <0>         0.0000
      8 C5          8.8360    0.9908    0.0000 CT        1 <0>         0.0000
      9 C6          8.1347   -0.2809    0.0000 CA        1 <0>         0.0000
     10 C7         10.3211    0.9965    0.0000 CT        1 <0>         0.0000
     11 C8          8.1347   -1.1059    0.0000 CA        1 <0>         0.0000
     12 C9          9.5769    1.4263    0.0000 C         1 <0>         0.0000
     13 C10         9.9762   -1.8204    0.0000 CT        1 <0>         0.0000
     14 C11        10.3888   -1.1059    0.0000 CT        1 <0>         0.0000
     15 C12         7.3973    0.1602    0.0000 CA        1 <0>         0.0000
     16 C13         5.9368   -1.5384    0.0000 CT        1 <0>         0.0000
     17 C14         6.6497   -1.1231    0.0000 CA        1 <0>         0.0000
     18 C15         7.3973   -1.5471    0.0000 CA        1 <0>         0.0000
     19 C16         6.6497   -0.2638    0.0000 CA        1 <0>         0.0000
     20 C17         5.2240   -1.9536    0.0000 CT        1 <0>         0.0000
     21 C18         6.3521   -2.2512    0.0000 CT        1 <0>         0.0000
     22 C19         5.5216   -0.8255    0.0000 CT        1 <0>         0.0000
     23 C20         4.5079   -1.5438    0.0000 CT        1 <0>         0.0000
     24 C21         3.7950   -1.9591    0.0000 CT        1 <0>         0.0000
     25 C22         3.0789   -1.5494    0.0000 CT        1 <0>         0.0000
     26 C23         2.3660   -1.9646    0.0000 CT        1 <0>         0.0000
     27 C24         1.6500   -1.5549    0.0000 CT        1 <0>         0.0000
     28 H1         10.1328   -0.6153    0.0000 HC        1 <0>         0.0000
     29 H2          9.4183    0.4660    0.0000 HC        1 <0>         0.0000
     30 H3          7.4068    0.9851    0.0000 HO        1 <0>         0.0000
     31 H4         10.3145    0.1372    0.0000 HC        1 <0>         0.0000
     32 H5         10.3145    0.1372    0.0000 HC        1 <0>         0.0000
     33 H6          8.8360    0.9908    0.0000 HC        1 <0>         0.0000
     34 H7          8.8360    0.9908    0.0000 HC        1 <0>         0.0000
     35 H8         10.3211    0.9965    0.0000 HC        1 <0>         0.0000
     36 H9         10.3211    0.9965    0.0000 HC        1 <0>         0.0000
     37 H10         9.9762   -1.8204    0.0000 HC        1 <0>         0.0000
     38 H11         9.9762   -1.8204    0.0000 HC        1 <0>         0.0000
     39 H12         9.9762   -1.8204    0.0000 HC        1 <0>         0.0000
     40 H13        10.3888   -1.1059    0.0000 HC        1 <0>         0.0000
     41 H14        10.3888   -1.1059    0.0000 HC        1 <0>         0.0000
     42 H15        10.3888   -1.1059    0.0000 HC        1 <0>         0.0000
     43 H16         7.3973   -1.5471    0.0000 HA        1 <0>         0.0000
     44 H17         6.6497   -0.2638    0.0000 HA        1 <0>         0.0000
     45 H18         5.2240   -1.9536    0.0000 HC        1 <0>         0.0000
     46 H19         5.2240   -1.9536    0.0000 HC        1 <0>         0.0000
     47 H20         6.3521   -2.2512    0.0000 HC        1 <0>         0.0000
     48 H21         6.3521   -2.2512    0.0000 HC        1 <0>         0.0000
     49 H22         6.3521   -2.2512    0.0000 HC        1 <0>         0.0000
     50 H23         5.5216   -0.8255    0.0000 HC        1 <0>         0.0000
     51 H24         5.5216   -0.8255    0.0000 HC        1 <0>         0.0000
     52 H25         5.5216   -0.8255    0.0000 HC        1 <0>         0.0000
     53 H26         4.5079   -1.5438    0.0000 HC        1 <0>         0.0000
     54 H27         4.5079   -1.5438    0.0000 HC        1 <0>         0.0000
     55 H28         3.7950   -1.9591    0.0000 HC        1 <0>         0.0000
     56 H29         3.7950   -1.9591    0.0000 HC        1 <0>         0.0000
     57 H30         3.0789   -1.5494    0.0000 HC        1 <0>         0.0000
     58 H31         3.0789   -1.5494    0.0000 HC        1 <0>         0.0000
     59 H32         2.3660   -1.9646    0.0000 HC        1 <0>         0.0000
     60 H33         2.3660   -1.9646    0.0000 HC        1 <0>         0.0000
     61 H34         1.6500   -1.5549    0.0000 HC        1 <0>         0.0000
     62 H35         1.6500   -1.5549    0.0000 HC        1 <0>         0.0000
     63 H36         1.6500   -1.5549    0.0000 HC        1 <0>         0.0000
@<TRIPOS>BOND
     1    1    6 1
     2    1   11 1
     3    2   12 2
     4    3   15 1
     5    4    5 1
     6    4    6 1
     7    4    7 1
     8    4   28 1
     9    5    8 1
    10    5    9 1
    11    5   29 1
    12    6   13 1
    13    6   14 1
    14    7   10 1
    15    8   12 1
    16    9   11 ar
    17    9   15 ar
    18   10   12 1
    19   11   18 ar
    20   15   19 ar
    21   16   17 1
    22   16   20 1
    23   16   21 1
    24   16   22 1
    25   17   18 ar
    26   17   19 ar
    27   20   23 1
    28   23   24 1
    29   24   25 1
    30   25   26 1
    31   26   27 1
    32    3   30 1
    33    7   31 1
    34    7   32 1
    35    8   33 1
    36    8   34 1
    37   10   35 1
    38   10   36 1
    39   13   37 1
    40   13   38 1
    41   13   39 1
    42   14   40 1
    43   14   41 1
    44   14   42 1
    45   18   43 1
    46   19   44 1
    47   20   45 1
    48   20   46 1
    49   21   47 1
    50   21   48 1
    51   21   49 1
    52   22   50 1
    53   22   51 1
    54   22   52 1
    55   23   53 1
    56   23   54 1
    57   24   55 1
    58   24   56 1
    59   25   57 1
    60   25   58 1
    61   26   59 1
    62   26   60 1
    63   27   61 1
    64   27   62 1
    65   27   63 1
@<TRIPOS>MOLECULE
498
   27    29     0     0     0
SMALL
NO_CHARGES

@<TRIPOS>ATOM
      1 O1          4.1159    1.4482    0.0000 O         1 <0>         0.0000
      2 O2          4.1159   -1.4482    0.0000 O         1 <0>         0.0000
      3 C1          4.3412    0.0000    0.0000 CT        1 <0>         0.0000
      4 C2          3.8597    0.6639    0.0000 C         1 <0>         0.0000
      5 C3          3.8597   -0.6639    0.0000 C         1 <0>         0.0000
      6 C4          3.0791    0.4125    0.0000 CA        1 <0>         0.0000
      7 C5          3.0791   -0.4125    0.0000 CA        1 <0>         0.0000
      8 C6          5.1662    0.0000    0.0000 CA        1 <0>         0.0000
      9 C7          2.3645    0.8250    0.0000 CA        1 <0>         0.0000
     10 C8          2.3645   -0.8250    0.0000 CA        1 <0>         0.0000
     11 C9          5.5787    0.7145    0.0000 CA        1 <0>         0.0000
     12 C10         5.5787   -0.7145    0.0000 CA        1 <0>         0.0000
     13 C11         1.6500    0.4125    0.0000 CA        1 <0>         0.0000
     14 C12         1.6500   -0.4125    0.0000 CA        1 <0>         0.0000
     15 C13         6.4037    0.7145    0.0000 CA        1 <0>         0.0000
     16 C14         6.4037   -0.7145    0.0000 CA        1 <0>         0.0000
     17 C15         6.8162    0.0000    0.0000 CA        1 <0>         0.0000
     18 H1          4.3412    0.0000    0.0000 HC        1 <0>         0.0000
     19 H2          2.3645    0.8250    0.0000 HA        1 <0>         0.0000
     20 H3          2.3645   -0.8250    0.0000 HA        1 <0>         0.0000
     21 H4          5.5787    0.7145    0.0000 HA        1 <0>         0.0000
     22 H5          5.5787   -0.7145    0.0000 HA        1 <0>         0.0000
     23 H6          1.6500    0.4125    0.0000 HA        1 <0>         0.0000
     24 H7          1.6500   -0.4125    0.0000 HA        1 <0>         0.0000
     25 H8          6.4037    0.7145    0.0000 HA        1 <0>         0.0000
     26 H9          6.4037   -0.7145    0.0000 HA        1 <0>         0.0000
     27 H10         6.8162    0.0000    0.0000 HA        1 <0>         0.0000
@<TRIPOS>BOND
     1    1    4 2
     2    2    5 2
     3    3    4 1
     4    3    5 1
     5    3    8 1
     6    4    6 1
     7    5    7 1
     8    6    7 ar
     9    6    9 ar
    10    7   10 ar
    11    8   11 ar
    12    8   12 ar
    13    9   13 ar
    14   10   14 ar
    15   11   15 ar
    16   12   16 ar
    17   13   14 ar
    18   15   17 ar
    19   16   17 ar
    20    3   18 1
    21    9   19 1
    22   10   20 1
    23   11   21 1
    24   12   22 1
    25   13   23 1
    26   14   24 1
    27   15   25 1
    28   16   26 1
    29   17   27 1
@<TRIPOS>MOLECULE
*****
  123   130     0     0     0
SMALL
NO_CHARGES

@<TRIPOS>ATOM
      1 C1         -1.5313    0.3875    0.0000 CT        1 <0>         0.0000
      2 C2         -2.2457   -0.0250    0.0000 CT        1 <0>         0.0000
      3 C3         -1.5313   -1.2625    0.0000 CT        1 <0>         0.0000
      4 C4         -0.1023   -1.2625    0.0000 CT        1 <0>         0.0000
      5 C5          0.6121   -0.8500    0.0000 CT        1 <0>         0.0000
      6 C6         -0.1023    1.2125    0.0000 CT        1 <0>         0.0000
      7 C7          2.1112    0.1326    0.0000 CT        1 <0>         0.0000
      8 C8         -2.2457   -0.8500    0.0000 CT        1 <0>         0.0000
      9 C9         -0.8168   -0.8500    0.0000 CT        1 <0>         0.0000
     10 H1         -0.8168   -1.6750    0.0000 HC        1 <0>         0.0000
     11 C10        -0.8168   -0.0250    0.0000 CT        1 <0>         0.0000
     12 C11        -0.8168    0.8000    0.0000 CT        1 <0>         0.0000
     13 C12        -0.1023    0.3875    0.0000 CT        1 <0>         0.0000
     14 H2         -0.1023   -0.4375    0.0000 HC        1 <0>         0.0000
     15 C13         1.3266    0.3875    0.0000 CT        1 <0>         0.0000
     16 O1          1.3266   -0.4375    0.0000 OH        1 <0>         0.0000
     17 C14         0.6121    1.6250    0.0000 CT        1 <0>         0.0000
     18 C15         1.3266    1.2125    0.0000 CT        1 <0>         0.0000
     19 C16         1.3266    2.0375    0.0000 CT        1 <0>         0.0000
     20 C17         3.1158    2.4986    0.0000 CT        1 <0>         0.0000
     21 C18         1.8575    2.9443    0.0000 CM        1 <0>         0.0000
     22 C19         2.3248    2.2644    0.0000 CM        1 <0>         0.0000
     23 O2          3.1374    3.3233    0.0000 OS        1 <0>         0.0000
     24 C20         2.3598    3.5988    0.0000 C         1 <0>         0.0000
     25 O3          2.0838    4.3644    0.0000 O         1 <0>         0.0000
     26 C21         2.1112    1.4675    0.0000 CT        1 <0>         0.0000
     27 H3          2.9081    1.6810    0.0000 HC        1 <0>         0.0000
     28 C22         0.6121   -0.0250    0.0000 CT        1 <0>         0.0000
     29 H4          0.6121    0.8000    0.0000 HC        1 <0>         0.0000
     30 C23         2.5961    0.8000    0.0000 CT        1 <0>         0.0000
     31 O4         -2.9602   -1.2625    0.0000 OS        1 <0>         0.0000
     32 C24        -3.6747   -0.8500    0.0000 CT        1 <0>         0.0000
     33 O5         -3.6747   -0.0250    0.0000 OS        1 <0>         0.0000
     34 C25        -4.3891   -1.2625    0.0000 CT        1 <0>         0.0000
     35 C26        -4.3891    0.3875    0.0000 CT        1 <0>         0.0000
     36 C27        -4.3891    1.2125    0.0000 CT        1 <0>         0.0000
     37 C28        -5.1036   -0.8500    0.0000 CT        1 <0>         0.0000
     38 O6         -5.8181   -1.2625    0.0000 OH        1 <0>         0.0000
     39 C29        -5.1036   -0.0250    0.0000 CT        1 <0>         0.0000
     40 O7         -5.8181    0.3875    0.0000 OS        1 <0>         0.0000
     41 C30        -6.5325   -0.0250    0.0000 CT        1 <0>         0.0000
     42 C31        -7.2470    0.3875    0.0000 CT        1 <0>         0.0000
     43 O8         -6.5325   -0.8500    0.0000 OS        1 <0>         0.0000
     44 C32        -7.2470   -1.2625    0.0000 CT        1 <0>         0.0000
     45 C33        -7.2470   -2.0875    0.0000 CT        1 <0>         0.0000
     46 C34        -7.9615   -0.0250    0.0000 CT        1 <0>         0.0000
     47 O9         -8.6759    0.3875    0.0000 OH        1 <0>         0.0000
     48 C35        -7.9615   -0.8500    0.0000 CT        1 <0>         0.0000
     49 O10        -8.6759   -1.2625    0.0000 OS        1 <0>         0.0000
     50 C36        -9.3904   -0.8500    0.0000 CT        1 <0>         0.0000
     51 C37       -10.1049   -1.2625    0.0000 CT        1 <0>         0.0000
     52 O11        -9.3904   -0.0250    0.0000 OS        1 <0>         0.0000
     53 C38       -10.1049    0.3875    0.0000 CT        1 <0>         0.0000
     54 C39       -10.1049    1.2125    0.0000 CT        1 <0>         0.0000
     55 C40       -10.8193   -0.0250    0.0000 CT        1 <0>         0.0000
     56 O12       -11.5338    0.3875    0.0000 OH        1 <0>         0.0000
     57 C41       -10.8193   -0.8500    0.0000 CT        1 <0>         0.0000
     58 O13       -11.5338   -1.2625    0.0000 OS        1 <0>         0.0000
     59 C42       -12.2483   -0.8500    0.0000 C         1 <0>         0.0000
     60 C43       -12.9627   -1.2625    0.0000 CT        1 <0>         0.0000
     61 O14       -12.2483   -0.0250    0.0000 O         1 <0>         0.0000
     62 H5         -1.5313    0.3875    0.0000 HC        1 <0>         0.0000
     63 H6         -1.5313    0.3875    0.0000 HC        1 <0>         0.0000
     64 H7         -2.2457   -0.0250    0.0000 HC        1 <0>         0.0000
     65 H8         -2.2457   -0.0250    0.0000 HC        1 <0>         0.0000
     66 H9         -1.5313   -1.2625    0.0000 HC        1 <0>         0.0000
     67 H10        -1.5313   -1.2625    0.0000 HC        1 <0>         0.0000
     68 H11        -0.1023   -1.2625    0.0000 HC        1 <0>         0.0000
     69 H12        -0.1023   -1.2625    0.0000 HC        1 <0>         0.0000
     70 H13         0.6121   -0.8500    0.0000 HC        1 <0>         0.0000
     71 H14         0.6121   -0.8500    0.0000 HC        1 <0>         0.0000
     72 H15        -0.1023    1.2125    0.0000 HC        1 <0>         0.0000
     73 H16        -0.1023    1.2125    0.0000 HC        1 <0>         0.0000
     74 H17         2.1112    0.1326    0.0000 HC        1 <0>         0.0000
     75 H18         2.1112    0.1326    0.0000 HC        1 <0>         0.0000
     76 H19        -2.2457   -0.8500    0.0000 H1        1 <0>         0.0000
     77 H20        -0.8168    0.8000    0.0000 HC        1 <0>         0.0000
     78 H21        -0.8168    0.8000    0.0000 HC        1 <0>         0.0000
     79 H22        -0.8168    0.8000    0.0000 HC        1 <0>         0.0000
     80 H23         1.3266   -0.4375    0.0000 HO        1 <0>         0.0000
     81 H24         0.6121    1.6250    0.0000 HC        1 <0>         0.0000
     82 H25         0.6121    1.6250    0.0000 HC        1 <0>         0.0000
     83 H26         1.3266    2.0375    0.0000 HC        1 <0>         0.0000
     84 H27         1.3266    2.0375    0.0000 HC        1 <0>         0.0000
     85 H28         1.3266    2.0375    0.0000 HC        1 <0>         0.0000
     86 H29         3.1158    2.4986    0.0000 H1        1 <0>         0.0000
     87 H30         3.1158    2.4986    0.0000 H1        1 <0>         0.0000
     88 H31         1.8575    2.9443    0.0000 HA        1 <0>         0.0000
     89 H32         2.5961    0.8000    0.0000 HC        1 <0>         0.0000
     90 H33         2.5961    0.8000    0.0000 HC        1 <0>         0.0000
     91 H34        -3.6747   -0.8500    0.0000 H2        1 <0>         0.0000
     92 H35        -4.3891   -1.2625    0.0000 HC        1 <0>         0.0000
     93 H36        -4.3891   -1.2625    0.0000 HC        1 <0>         0.0000
     94 H37        -4.3891    0.3875    0.0000 H1        1 <0>         0.0000
     95 H38        -4.3891    1.2125    0.0000 HC        1 <0>         0.0000
     96 H39        -4.3891    1.2125    0.0000 HC        1 <0>         0.0000
     97 H40        -4.3891    1.2125    0.0000 HC        1 <0>         0.0000
     98 H41        -5.1036   -0.8500    0.0000 H1        1 <0>         0.0000
     99 H42        -5.8181   -1.2625    0.0000 HO        1 <0>         0.0000
    100 H43        -5.1036   -0.0250    0.0000 H1        1 <0>         0.0000
    101 H44        -6.5325   -0.0250    0.0000 H2        1 <0>         0.0000
    102 H45        -7.2470    0.3875    0.0000 HC        1 <0>         0.0000
    103 H46        -7.2470    0.3875    0.0000 HC        1 <0>         0.0000
    104 H47        -7.2470   -1.2625    0.0000 H1        1 <0>         0.0000
    105 H48        -7.2470   -2.0875    0.0000 HC        1 <0>         0.0000
    106 H49        -7.2470   -2.0875    0.0000 HC        1 <0>         0.0000
    107 H50        -7.2470   -2.0875    0.0000 HC        1 <0>         0.0000
    108 H51        -7.9615   -0.0250    0.0000 H1        1 <0>         0.0000
    109 H52        -8.6759    0.3875    0.0000 HO        1 <0>         0.0000
    110 H53        -7.9615   -0.8500    0.0000 H1        1 <0>         0.0000
    111 H54        -9.3904   -0.8500    0.0000 H2        1 <0>         0.0000
    112 H55       -10.1049   -1.2625    0.0000 HC        1 <0>         0.0000
    113 H56       -10.1049   -1.2625    0.0000 HC        1 <0>         0.0000
    114 H57       -10.1049    0.3875    0.0000 H1        1 <0>         0.0000
    115 H58       -10.1049    1.2125    0.0000 HC        1 <0>         0.0000
    116 H59       -10.1049    1.2125    0.0000 HC        1 <0>         0.0000
    117 H60       -10.1049    1.2125    0.0000 HC        1 <0>         0.0000
    118 H61       -10.8193   -0.0250    0.0000 H1        1 <0>         0.0000
    119 H62       -11.5338    0.3875    0.0000 HO        1 <0>         0.0000
    120 H63       -10.8193   -0.8500    0.0000 H1        1 <0>         0.0000
    121 H64       -12.9627   -1.2625    0.0000 HC        1 <0>         0.0000
    122 H65       -12.9627   -1.2625    0.0000 HC        1 <0>         0.0000
    123 H66       -12.9627   -1.2625    0.0000 HC        1 <0>         0.0000
@<TRIPOS>BOND
     1    1    2 1
     2    1   11 1
     3    2    8 1
     4    3    8 1
     5    3    9 1
     6   11   13 1
     7    9   11 1
     8    4    9 1
     9    4    5 1
    10    5   28 1
    11   15   28 1
    12   13   28 1
    13    6   13 1
    14    6   17 1
    15   17   18 1
    16   18   26 1
    17   15   18 1
    18    7   15 1
    19   26   30 1
    20    7   30 1
    21    8   31 1
    22    9   10 1
    23   11   12 1
    24   13   14 1
    25   15   16 1
    26   18   19 1
    27   22   26 1
    28   20   23 1
    29   20   22 1
    30   23   24 1
    31   21   24 1
    32   21   22 2
    33   24   25 2
    34   26   27 1
    35   28   29 1
    36   31   32 1
    37   32   34 1
    38   32   33 1
    39   35   39 1
    40   33   35 1
    41   37   39 1
    42   34   37 1
    43   35   36 1
    44   37   38 1
    45   39   40 1
    46   40   41 1
    47   41   43 1
    48   41   42 1
    49   42   46 1
    50   46   48 1
    51   44   48 1
    52   43   44 1
    53   44   45 1
    54   46   47 1
    55   48   49 1
    56   49   50 1
    57   50   51 1
    58   50   52 1
    59   53   55 1
    60   52   53 1
    61   55   57 1
    62   51   57 1
    63   53   54 1
    64   55   56 1
    65   57   58 1
    66   58   59 1
    67   59   60 1
    68   59   61 2
    69    1   62 1
    70    1   63 1
    71    2   64 1
    72    2   65 1
    73    3   66 1
    74    3   67 1
    75    4   68 1
    76    4   69 1
    77    5   70 1
    78    5   71 1
    79    6   72 1
    80    6   73 1
    81    7   74 1
    82    7   75 1
    83    8   76 1
    84   12   77 1
    85   12   78 1
    86   12   79 1
    87   16   80 1
    88   17   81 1
    89   17   82 1
    90   19   83 1
    91   19   84 1
    92   19   85 1
    93   20   86 1
    94   20   87 1
    95   21   88 1
    96   30   89 1
    97   30   90 1
    98   32   91 1
    99   34   92 1
   100   34   93 1
   101   35   94 1
   102   36   95 1
   103   36   96 1
   104   36   97 1
   105   37   98 1
   106   38   99 1
   107   39  100 1
   108   41  101 1
   109   42  102 1
   110   42  103 1
   111   44  104 1
   112   45  105 1
   113   45  106 1
   114   45  107 1
   115   46  108 1
   116   47  109 1
   117   48  110 1
   118   50  111 1
   119   51  112 1
   120   51  113 1
   121   53  114 1
   122   54  115 1
   123   54  116 1
   124   54  117 1
   125   55  118 1
   126   56  119 1
   127   57  120 1
   128   60  121 1
   129   60  122 1
   130   60  123 1
@<TRIPOS>MOLECULE
523
   50    50     0     0     0
SMALL
NO_CHARGES

@<TRIPOS>ATOM
      1 O1          0.9574   -5.0146    0.0000 OH        1 <0>         0.0000
      2 O2          2.3864   -5.0146    0.0000 O         1 <0>         0.0000
      3 C1          6.6732   -0.8896    0.0000 CT        1 <0>         0.0000
      4 C2          7.3877   -1.3021    0.0000 CT        1 <0>         0.0000
      5 C3          7.3877   -2.1271    0.0000 CT        1 <0>         0.0000
      6 C4          5.9587   -1.3021    0.0000 CM        1 <0>         0.0000
      7 C5          6.6732   -2.5396    0.0000 CT        1 <0>         0.0000
      8 C6          5.9587   -2.1271    0.0000 CM        1 <0>         0.0000
      9 C7          7.0605   -0.1611    0.0000 CT        1 <0>         0.0000
     10 C8          6.2859   -0.1611    0.0000 CT        1 <0>         0.0000
     11 C9          5.2443   -0.8896    0.0000 CM        1 <0>         0.0000
     12 C10         5.2443   -2.5396    0.0000 CT        1 <0>         0.0000
     13 C11         4.5298   -1.3021    0.0000 CM        1 <0>         0.0000
     14 C12         3.8153   -0.8896    0.0000 CM        1 <0>         0.0000
     15 C13         3.8153   -0.0646    0.0000 CT        1 <0>         0.0000
     16 C14         3.1008   -1.3021    0.0000 CM        1 <0>         0.0000
     17 C15         3.1008   -2.1271    0.0000 CM        1 <0>         0.0000
     18 C16         2.3864   -2.5396    0.0000 CM        1 <0>         0.0000
     19 C17         2.3864   -3.3646    0.0000 CM        1 <0>         0.0000
     20 C18         3.1008   -3.7771    0.0000 CT        1 <0>         0.0000
     21 C19         1.6719   -3.7771    0.0000 CM        1 <0>         0.0000
     22 C20         1.6719   -4.6021    0.0000 C         1 <0>         0.0000
     23 H1          0.9574   -5.0146    0.0000 HO        1 <0>         0.0000
     24 H2          7.3877   -1.3021    0.0000 HC        1 <0>         0.0000
     25 H3          7.3877   -1.3021    0.0000 HC        1 <0>         0.0000
     26 H4          7.3877   -2.1271    0.0000 HC        1 <0>         0.0000
     27 H5          7.3877   -2.1271    0.0000 HC        1 <0>         0.0000
     28 H6          6.6732   -2.5396    0.0000 HC        1 <0>         0.0000
     29 H7          6.6732   -2.5396    0.0000 HC        1 <0>         0.0000
     30 H8          7.0605   -0.1611    0.0000 HC        1 <0>         0.0000
     31 H9          7.0605   -0.1611    0.0000 HC        1 <0>         0.0000
     32 H10         7.0605   -0.1611    0.0000 HC        1 <0>         0.0000
     33 H11         6.2859   -0.1611    0.0000 HC        1 <0>         0.0000
     34 H12         6.2859   -0.1611    0.0000 HC        1 <0>         0.0000
     35 H13         6.2859   -0.1611    0.0000 HC        1 <0>         0.0000
     36 H14         5.2443   -0.8896    0.0000 HA        1 <0>         0.0000
     37 H15         5.2443   -2.5396    0.0000 HC        1 <0>         0.0000
     38 H16         5.2443   -2.5396    0.0000 HC        1 <0>         0.0000
     39 H17         5.2443   -2.5396    0.0000 HC        1 <0>         0.0000
     40 H18         4.5298   -1.3021    0.0000 HA        1 <0>         0.0000
     41 H19         3.8153   -0.0646    0.0000 HC        1 <0>         0.0000
     42 H20         3.8153   -0.0646    0.0000 HC        1 <0>         0.0000
     43 H21         3.8153   -0.0646    0.0000 HC        1 <0>         0.0000
     44 H22         3.1008   -1.3021    0.0000 HA        1 <0>         0.0000
     45 H23         3.1008   -2.1271    0.0000 HA        1 <0>         0.0000
     46 H24         2.3864   -2.5396    0.0000 HA        1 <0>         0.0000
     47 H25         3.1008   -3.7771    0.0000 HC        1 <0>         0.0000
     48 H26         3.1008   -3.7771    0.0000 HC        1 <0>         0.0000
     49 H27         3.1008   -3.7771    0.0000 HC        1 <0>         0.0000
     50 H28         1.6719   -3.7771    0.0000 HA        1 <0>         0.0000
@<TRIPOS>BOND
     1    1   22 1
     2    2   22 2
     3    3    4 1
     4    3    6 1
     5    3    9 1
     6    3   10 1
     7    4    5 1
     8    5    7 1
     9    6    8 2
    10    6   11 1
    11    7    8 1
    12    8   12 1
    13   11   13 2
    14   13   14 1
    15   14   15 1
    16   14   16 2
    17   16   17 1
    18   17   18 2
    19   18   19 1
    20   19   20 1
    21   19   21 2
    22   21   22 1
    23    1   23 1
    24    4   24 1
    25    4   25 1
    26    5   26 1
    27    5   27 1
    28    7   28 1
    29    7   29 1
    30    9   30 1
    31    9   31 1
    32    9   32 1
    33   10   33 1
    34   10   34 1
    35   10   35 1
    36   11   36 1
    37   12   37 1
    38   12   38 1
    39   12   39 1
    40   13   40 1
    41   15   41 1
    42   15   42 1
    43   15   43 1
    44   16   44 1
    45   17   45 1
    46   18   46 1
    47   20   47 1
    48   20   48 1
    49   20   49 1
    50   21   50 1
@<TRIPOS>MOLECULE
548
   29    28     0     0     0
SMALL
NO_CHARGES

@<TRIPOS>ATOM
      1 O1          2.0930    0.6188    0.0000 OH        1 <0>         0.0000
      2 O2          9.2379    0.6188    0.0000 OH        1 <0>         0.0000
      3 O3          2.8075   -0.6188    0.0000 O         1 <0>         0.0000
      4 O4          8.5234   -0.6188    0.0000 O         1 <0>         0.0000
      5 C1          5.6655    0.2063    0.0000 CT        1 <0>         0.0000
      6 C2          4.9509    0.6188    0.0000 CT        1 <0>         0.0000
      7 C3          6.3799    0.6188    0.0000 CT        1 <0>         0.0000
      8 C4          4.2365    0.2063    0.0000 CT        1 <0>         0.0000
      9 C5          7.0944    0.2063    0.0000 CT        1 <0>         0.0000
     10 C6          3.5220    0.6188    0.0000 CT        1 <0>         0.0000
     11 C7          7.8089    0.6188    0.0000 CT        1 <0>         0.0000
     12 C8          2.8075    0.2063    0.0000 C         1 <0>         0.0000
     13 C9          8.5234    0.2063    0.0000 C         1 <0>         0.0000
     14 H1          2.0930    0.6188    0.0000 HO        1 <0>         0.0000
     15 H2          9.2379    0.6188    0.0000 HO        1 <0>         0.0000
     16 H3          5.6655    0.2063    0.0000 HC        1 <0>         0.0000
     17 H4          5.6655    0.2063    0.0000 HC        1 <0>         0.0000
     18 H5          4.9509    0.6188    0.0000 HC        1 <0>         0.0000
     19 H6          4.9509    0.6188    0.0000 HC        1 <0>         0.0000
     20 H7          6.3799    0.6188    0.0000 HC        1 <0>         0.0000
     21 H8          6.3799    0.6188    0.0000 HC        1 <0>         0.0000
     22 H9          4.2365    0.2063    0.0000 HC        1 <0>         0.0000
     23 H10         4.2365    0.2063    0.0000 HC        1 <0>         0.0000
     24 H11         7.0944    0.2063    0.0000 HC        1 <0>         0.0000
     25 H12         7.0944    0.2063    0.0000 HC        1 <0>         0.0000
     26 H13         3.5220    0.6188    0.0000 HC        1 <0>         0.0000
     27 H14         3.5220    0.6188    0.0000 HC        1 <0>         0.0000
     28 H15         7.8089    0.6188    0.0000 HC        1 <0>         0.0000
     29 H16         7.8089    0.6188    0.0000 HC        1 <0>         0.0000
@<TRIPOS>BOND
     1    1   12 1
     2    2   13 1
     3    3   12 2
     4    4   13 2
     5    5    6 1
     6    5    7 1
     7    6    8 1
     8    7    9 1
     9    8   10 1
    10    9   11 1
    11   10   12 1
    12   11   13 1
    13    1   14 1
    14    2   15 1
    15    5   16 1
    16    5   17 1
    17    6   18 1
    18    6   19 1
    19    7   20 1
    20    7   21 1
    21    8   22 1
    22    8   23 1
    23    9   24 1
    24    9   25 1
    25   10   26 1
    26   10   27 1
    27   11   28 1
    28   11   29 1
@<TRIPOS>MOLECULE
Xanthotoxin
   24    26     0     0     0
SMALL
NO_CHARGES

@<TRIPOS>ATOM
      1 C1          2.6378    0.1271    0.0000 CT        1 <0>         0.0000
      2 O1          3.3523   -0.2854    0.0000 OS        1 <0>         0.0000
      3 C2          3.3523   -1.1104    0.0000 CA        1 <0>         0.0000
      4 C3          4.0668   -1.5229    0.0000 CB        1 <0>         0.0000
      5 O2          4.7812   -1.1104    0.0000 OS        1 <0>         0.0000
      6 C4          5.4957   -1.5229    0.0000 C         1 <0>         0.0000
      7 O3          6.2102   -1.1104    0.0000 O         1 <0>         0.0000
      8 C5          5.4957   -2.3479    0.0000 CA        1 <0>         0.0000
      9 C6          4.7812   -2.7604    0.0000 CA        1 <0>         0.0000
     10 C7          4.0668   -2.3479    0.0000 CB        1 <0>         0.0000
     11 C8          3.3523   -2.7604    0.0000 CA        1 <0>         0.0000
     12 C9          2.6378   -2.3479    0.0000 CB        1 <0>         0.0000
     13 C10         2.6378   -1.5229    0.0000 CB        1 <0>         0.0000
     14 O4          1.8532   -1.2680    0.0000 OS        1 <0>         0.0000
     15 C11         1.3683   -1.9354    0.0000 CW        1 <0>         0.0000
     16 C12         1.8532   -2.6029    0.0000 CC        1 <0>         0.0000
     17 H1          2.6378    0.1271    0.0000 H1        1 <0>         0.0000
     18 H2          2.6378    0.1271    0.0000 H1        1 <0>         0.0000
     19 H3          2.6378    0.1271    0.0000 H1        1 <0>         0.0000
     20 H4          5.4957   -2.3479    0.0000 HA        1 <0>         0.0000
     21 H5          4.7812   -2.7604    0.0000 HA        1 <0>         0.0000
     22 H6          3.3523   -2.7604    0.0000 HA        1 <0>         0.0000
     23 H7          1.3683   -1.9354    0.0000 H4        1 <0>         0.0000
     24 H8          1.8532   -2.6029    0.0000 HA        1 <0>         0.0000
@<TRIPOS>BOND
     1    1    2 1
     2    2    3 1
     3    3    4 ar
     4    4    5 1
     5    5    6 1
     6    6    7 2
     7    6    8 1
     8    8    9 2
     9    9   10 1
    10    4   10 ar
    11   10   11 ar
    12   11   12 ar
    13   12   13 ar
    14    3   13 ar
    15   13   14 1
    16   14   15 1
    17   15   16 2
    18   12   16 1
    19    1   17 1
    20    1   18 1
    21    1   19 1
    22    8   20 1
    23    9   21 1
    24   11   22 1
    25   15   23 1
    26   16   24 1
@<TRIPOS>MOLECULE
573
   32    33     0     0     0
SMALL
NO_CHARGES

@<TRIPOS>ATOM
      1 O1          2.3645   -0.7466    0.0000 OS        1 <0>         0.0000
      2 O2          4.5080    2.9659    0.0000 OH        1 <0>         0.0000
      3 O3          5.2224    1.7284    0.0000 O         1 <0>         0.0000
      4 C1          3.7935    1.7284    0.0000 CT        1 <0>         0.0000
      5 C2          3.7935    0.9034    0.0000 CA        1 <0>         0.0000
      6 C3          3.0791    0.4909    0.0000 CA        1 <0>         0.0000
      7 C4          3.0791    2.1409    0.0000 CT        1 <0>         0.0000
      8 C5          4.5080    0.4909    0.0000 CA        1 <0>         0.0000
      9 C6          3.0791   -0.3341    0.0000 CA        1 <0>         0.0000
     10 C7          4.5080    2.1409    0.0000 C         1 <0>         0.0000
     11 C8          4.5080   -0.3341    0.0000 CA        1 <0>         0.0000
     12 C9          3.7935   -0.7466    0.0000 CA        1 <0>         0.0000
     13 C10         2.3645   -1.5717    0.0000 CA        1 <0>         0.0000
     14 C11         3.0791   -1.9842    0.0000 CA        1 <0>         0.0000
     15 C12         1.6500   -1.9842    0.0000 CA        1 <0>         0.0000
     16 C13         3.0791   -2.8092    0.0000 CA        1 <0>         0.0000
     17 C14         1.6500   -2.8092    0.0000 CA        1 <0>         0.0000
     18 C15         2.3645   -3.2217    0.0000 CA        1 <0>         0.0000
     19 H1          4.5080    2.9659    0.0000 HO        1 <0>         0.0000
     20 H2          3.7935    1.7284    0.0000 HC        1 <0>         0.0000
     21 H3          3.0791    0.4909    0.0000 HA        1 <0>         0.0000
     22 H4          3.0791    2.1409    0.0000 HC        1 <0>         0.0000
     23 H5          3.0791    2.1409    0.0000 HC        1 <0>         0.0000
     24 H6          3.0791    2.1409    0.0000 HC        1 <0>         0.0000
     25 H7          4.5080    0.4909    0.0000 HA        1 <0>         0.0000
     26 H8          4.5080   -0.3341    0.0000 HA        1 <0>         0.0000
     27 H9          3.7935   -0.7466    0.0000 HA        1 <0>         0.0000
     28 H10         3.0791   -1.9842    0.0000 HA        1 <0>         0.0000
     29 H11         1.6500   -1.9842    0.0000 HA        1 <0>         0.0000
     30 H12         3.0791   -2.8092    0.0000 HA        1 <0>         0.0000
     31 H13         1.6500   -2.8092    0.0000 HA        1 <0>         0.0000
     32 H14         2.3645   -3.2217    0.0000 HA        1 <0>         0.0000
@<TRIPOS>BOND
     1    1    9 1
     2    1   13 1
     3    2   10 1
     4    3   10 2
     5    4    5 1
     6    4    7 1
     7    4   10 1
     8    5    6 ar
     9    5    8 ar
    10    6    9 ar
    11    8   11 ar
    12    9   12 ar
    13   11   12 ar
    14   13   14 ar
    15   13   15 ar
    16   14   16 ar
    17   15   17 ar
    18   16   18 ar
    19   17   18 ar
    20    2   19 1
    21    4   20 1
    22    6   21 1
    23    7   22 1
    24    7   23 1
    25    7   24 1
    26    8   25 1
    27   11   26 1
    28   12   27 1
    29   14   28 1
    30   15   29 1
    31   16   30 1
    32   17   31 1
    33   18   32 1
@<TRIPOS>MOLECULE
581
   45    46     0     0     0
SMALL
NO_CHARGES

@<TRIPOS>ATOM
      1 O1          5.6655   -0.5564    0.0000 OS        1 <0>         0.0000
      2 O2          5.2530    1.5382    0.0000 OS        1 <0>         0.0000
      3 O3          4.2365   -0.5564    0.0000 OS        1 <0>         0.0000
      4 O4          7.1175    0.4986    0.0000 OH        1 <0>         0.0000
      5 O5          6.8626    1.7931    0.0000 OH        1 <0>         0.0000
      6 O6          5.6655   -2.2064    0.0000 OH        1 <0>         0.0000
      7 O7          4.2365   -3.0314    0.0000 OH        1 <0>         0.0000
      8 O8          2.8075   -2.2064    0.0000 OH        1 <0>         0.0000
      9 O9          3.6002    1.0507    0.0000 OH        1 <0>         0.0000
     10 O10         5.3634    2.7757    0.0000 OH        1 <0>         0.0000
     11 O11         2.0930   -0.9689    0.0000 OH        1 <0>         0.0000
     12 C1          5.6655    0.2686    0.0000 CT        1 <0>         0.0000
     13 C2          6.3329    0.7536    0.0000 CT        1 <0>         0.0000
     14 C3          4.9980    0.7536    0.0000 CT        1 <0>         0.0000
     15 C4          6.0780    1.5382    0.0000 CT        1 <0>         0.0000
     16 C5          4.9509   -0.9689    0.0000 CT        1 <0>         0.0000
     17 C6          4.9509   -1.7939    0.0000 CT        1 <0>         0.0000
     18 C7          4.2365   -2.2064    0.0000 CT        1 <0>         0.0000
     19 C8          3.5220   -1.7939    0.0000 CT        1 <0>         0.0000
     20 C9          3.5220   -0.9689    0.0000 CT        1 <0>         0.0000
     21 C10         4.2134    0.4986    0.0000 CT        1 <0>         0.0000
     22 C11         6.0780    2.3632    0.0000 CT        1 <0>         0.0000
     23 C12         2.8075   -0.5564    0.0000 CT        1 <0>         0.0000
     24 H1          7.1175    0.4986    0.0000 HO        1 <0>         0.0000
     25 H2          6.8626    1.7931    0.0000 HO        1 <0>         0.0000
     26 H3          5.6655   -2.2064    0.0000 HO        1 <0>         0.0000
     27 H4          4.2365   -3.0314    0.0000 HO        1 <0>         0.0000
     28 H5          2.8075   -2.2064    0.0000 HO        1 <0>         0.0000
     29 H6          3.6002    1.0507    0.0000 HO        1 <0>         0.0000
     30 H7          5.3634    2.7757    0.0000 HO        1 <0>         0.0000
     31 H8          2.0930   -0.9689    0.0000 HO        1 <0>         0.0000
     32 H9          5.6655    0.2686    0.0000 H1        1 <0>         0.0000
     33 H10         6.3329    0.7536    0.0000 H1        1 <0>         0.0000
     34 H11         4.9980    0.7536    0.0000 H1        1 <0>         0.0000
     35 H12         4.9509   -0.9689    0.0000 H2        1 <0>         0.0000
     36 H13         4.9509   -1.7939    0.0000 H1        1 <0>         0.0000
     37 H14         4.2365   -2.2064    0.0000 H1        1 <0>         0.0000
     38 H15         3.5220   -1.7939    0.0000 H1        1 <0>         0.0000
     39 H16         3.5220   -0.9689    0.0000 H1        1 <0>         0.0000
     40 H17         4.2134    0.4986    0.0000 H1        1 <0>         0.0000
     41 H18         4.2134    0.4986    0.0000 H1        1 <0>         0.0000
     42 H19         6.0780    2.3632    0.0000 H1        1 <0>         0.0000
     43 H20         6.0780    2.3632    0.0000 H1        1 <0>         0.0000
     44 H21         2.8075   -0.5564    0.0000 H1        1 <0>         0.0000
     45 H22         2.8075   -0.5564    0.0000 H1        1 <0>         0.0000
@<TRIPOS>BOND
     1    1   12 1
     2    1   16 1
     3    2   14 1
     4    2   15 1
     5    3   16 1
     6    3   20 1
     7    4   13 1
     8    5   15 1
     9    6   17 1
    10    7   18 1
    11    8   19 1
    12    9   21 1
    13   10   22 1
    14   11   23 1
    15   12   13 1
    16   12   14 1
    17   13   15 1
    18   14   21 1
    19   15   22 1
    20   16   17 1
    21   17   18 1
    22   18   19 1
    23   19   20 1
    24   20   23 1
    25    4   24 1
    26    5   25 1
    27    6   26 1
    28    7   27 1
    29    8   28 1
    30    9   29 1
    31   10   30 1
    32   11   31 1
    33   12   32 1
    34   13   33 1
    35   14   34 1
    36   16   35 1
    37   17   36 1
    38   18   37 1
    39   19   38 1
    40   20   39 1
    41   21   40 1
    42   21   41 1
    43   22   42 1
    44   22   43 1
    45   23   44 1
    46   23   45 1
@<TRIPOS>MOLECULE
600
   27    28     0     0     0
SMALL
NO_CHARGES

@<TRIPOS>ATOM
      1 O1          2.3644    0.3341    0.0000 OS        1 <0>         0.0000
      2 O2          2.3644   -2.9659    0.0000 OH        1 <0>         0.0000
      3 C1          3.0790    1.5716    0.0000 CA        1 <0>         0.0000
      4 C2          3.0790    0.7466    0.0000 CT        1 <0>         0.0000
      5 C3          2.3644   -0.4909    0.0000 CA        1 <0>         0.0000
      6 C4          2.3644    1.9841    0.0000 CA        1 <0>         0.0000
      7 C5          3.7934    1.9841    0.0000 CA        1 <0>         0.0000
      8 C6          1.6500   -0.9034    0.0000 CA        1 <0>         0.0000
      9 C7          3.0790   -0.9034    0.0000 CA        1 <0>         0.0000
     10 C8          2.3644    2.8091    0.0000 CA        1 <0>         0.0000
     11 C9          3.7934    2.8091    0.0000 CA        1 <0>         0.0000
     12 C10         3.0790    3.2216    0.0000 CA        1 <0>         0.0000
     13 C11         1.6500   -1.7284    0.0000 CA        1 <0>         0.0000
     14 C12         3.0790   -1.7284    0.0000 CA        1 <0>         0.0000
     15 C13         2.3644   -2.1409    0.0000 CA        1 <0>         0.0000
     16 H1          2.3644   -2.9659    0.0000 HO        1 <0>         0.0000
     17 H2          3.0790    0.7466    0.0000 H1        1 <0>         0.0000
     18 H3          3.0790    0.7466    0.0000 H1        1 <0>         0.0000
     19 H4          2.3644    1.9841    0.0000 HA        1 <0>         0.0000
     20 H5          3.7934    1.9841    0.0000 HA        1 <0>         0.0000
     21 H6          1.6500   -0.9034    0.0000 HA        1 <0>         0.0000
     22 H7          3.0790   -0.9034    0.0000 HA        1 <0>         0.0000
     23 H8          2.3644    2.8091    0.0000 HA        1 <0>         0.0000
     24 H9          3.7934    2.8091    0.0000 HA        1 <0>         0.0000
     25 H10         3.0790    3.2216    0.0000 HA        1 <0>         0.0000
     26 H11         1.6500   -1.7284    0.0000 HA        1 <0>         0.0000
     27 H12         3.0790   -1.7284    0.0000 HA        1 <0>         0.0000
@<TRIPOS>BOND
     1    1    4 1
     2    1    5 1
     3    2   15 1
     4    3    4 1
     5    3    6 ar
     6    3    7 ar
     7    5    8 ar
     8    5    9 ar
     9    6   10 ar
    10    7   11 ar
    11    8   13 ar
    12    9   14 ar
    13   10   12 ar
    14   11   12 ar
    15   13   15 ar
    16   14   15 ar
    17    2   16 1
    18    4   17 1
    19    4   18 1
    20    6   19 1
    21    7   20 1
    22    8   21 1
    23    9   22 1
    24   10   23 1
    25   11   24 1
    26   12   25 1
    27   13   26 1
    28   14   27 1
@<TRIPOS>MOLECULE
*****
   62    65     0     0     0
SMALL
NO_CHARGES

@<TRIPOS>ATOM
      1 C1          1.8036   -0.1138    0.0000 CT        1 <0>         0.0000
      2 C2          0.3045   -1.0964    0.0000 CT        1 <0>         0.0000
      3 C3          1.8036    1.2211    0.0000 CT        1 <0>         0.0000
      4 C4          0.3045    1.3786    0.0000 CT        1 <0>         0.0000
      5 C5          2.2885    0.5536    0.0000 CT        1 <0>         0.0000
      6 C6         -1.1245   -0.2714    0.0000 CT        1 <0>         0.0000
      7 C7         -0.4100    0.9661    0.0000 CT        1 <0>         0.0000
      8 C8         -0.4100   -1.5089    0.0000 CT        1 <0>         0.0000
      9 C9         -1.1245   -1.0964    0.0000 CM        1 <0>         0.0000
     10 C10        -1.8390    0.1411    0.0000 CT        1 <0>         0.0000
     11 C11        -1.8390   -1.5089    0.0000 CM        1 <0>         0.0000
     12 C12        -2.5534   -0.2714    0.0000 CT        1 <0>         0.0000
     13 C13         0.3045   -0.2714    0.0000 CT        1 <0>         0.0000
     14 H1          0.3045    0.5536    0.0000 HC        1 <0>         0.0000
     15 C14        -0.4100    0.1411    0.0000 CT        1 <0>         0.0000
     16 H2         -0.4100   -0.6839    0.0000 HC        1 <0>         0.0000
     17 C15         1.0189    0.9661    0.0000 CT        1 <0>         0.0000
     18 C16         1.0189    1.7911    0.0000 CT        1 <0>         0.0000
     19 C17         1.0189    0.1411    0.0000 CT        1 <0>         0.0000
     20 H3          1.0189   -0.6839    0.0000 HC        1 <0>         0.0000
     21 O1         -3.2679   -1.5089    0.0000 O         1 <0>         0.0000
     22 C18        -2.5534   -1.0964    0.0000 C         1 <0>         0.0000
     23 C19        -1.1245    0.5536    0.0000 CT        1 <0>         0.0000
     24 O2          2.5181    1.6336    0.0000 OS        1 <0>         0.0000
     25 C20         1.8036    2.0461    0.0000 C         1 <0>         0.0000
     26 C21         1.2202    2.6295    0.0000 CT        1 <0>         0.0000
     27 O3          2.5181    2.4586    0.0000 O         1 <0>         0.0000
     28 C22        -0.4100   -2.3339    0.0000 CT        1 <0>         0.0000
     29 C23         3.2326    1.2211    0.0000 C         1 <0>         0.0000
     30 C24         3.9470    1.6336    0.0000 CT        1 <0>         0.0000
     31 O4          3.2326    0.3961    0.0000 O         1 <0>         0.0000
     32 H4          1.8036   -0.1138    0.0000 HC        1 <0>         0.0000
     33 H5          1.8036   -0.1138    0.0000 HC        1 <0>         0.0000
     34 H6          0.3045   -1.0964    0.0000 HC        1 <0>         0.0000
     35 H7          0.3045   -1.0964    0.0000 HC        1 <0>         0.0000
     36 H8          0.3045    1.3786    0.0000 HC        1 <0>         0.0000
     37 H9          0.3045    1.3786    0.0000 HC        1 <0>         0.0000
     38 H10         2.2885    0.5536    0.0000 HC        1 <0>         0.0000
     39 H11         2.2885    0.5536    0.0000 HC        1 <0>         0.0000
     40 H12        -0.4100    0.9661    0.0000 HC        1 <0>         0.0000
     41 H13        -0.4100    0.9661    0.0000 HC        1 <0>         0.0000
     42 H14        -0.4100   -1.5089    0.0000 HC        1 <0>         0.0000
     43 H15        -1.8390    0.1411    0.0000 HC        1 <0>         0.0000
     44 H16        -1.8390    0.1411    0.0000 HC        1 <0>         0.0000
     45 H17        -1.8390   -1.5089    0.0000 HA        1 <0>         0.0000
     46 H18        -2.5534   -0.2714    0.0000 HC        1 <0>         0.0000
     47 H19        -2.5534   -0.2714    0.0000 HC        1 <0>         0.0000
     48 H20         1.0189    1.7911    0.0000 HC        1 <0>         0.0000
     49 H21         1.0189    1.7911    0.0000 HC        1 <0>         0.0000
     50 H22         1.0189    1.7911    0.0000 HC        1 <0>         0.0000
     51 H23        -1.1245    0.5536    0.0000 HC        1 <0>         0.0000
     52 H24        -1.1245    0.5536    0.0000 HC        1 <0>         0.0000
     53 H25        -1.1245    0.5536    0.0000 HC        1 <0>         0.0000
     54 H26         1.2202    2.6295    0.0000 HC        1 <0>         0.0000
     55 H27         1.2202    2.6295    0.0000 HC        1 <0>         0.0000
     56 H28         1.2202    2.6295    0.0000 HC        1 <0>         0.0000
     57 H29        -0.4100   -2.3339    0.0000 HC        1 <0>         0.0000
     58 H30        -0.4100   -2.3339    0.0000 HC        1 <0>         0.0000
     59 H31        -0.4100   -2.3339    0.0000 HC        1 <0>         0.0000
     60 H32         3.9470    1.6336    0.0000 HC        1 <0>         0.0000
     61 H33         3.9470    1.6336    0.0000 HC        1 <0>         0.0000
     62 H34         3.9470    1.6336    0.0000 HC        1 <0>         0.0000
@<TRIPOS>BOND
     1   13   19 1
     2   17   19 1
     3    1   19 1
     4   13   15 1
     5    2   13 1
     6    3   17 1
     7    4   17 1
     8    1    5 1
     9    6   15 1
    10    7   15 1
    11    2    8 1
    12    6    9 1
    13    6   10 1
    14    9   11 2
    15   10   12 1
    16   11   22 1
    17    3    5 1
    18    4    7 1
    19    8    9 1
    20   12   22 1
    21   13   14 1
    22   15   16 1
    23   17   18 1
    24   19   20 1
    25   21   22 2
    26    6   23 1
    27    3   24 1
    28    3   25 1
    29   25   26 1
    30   25   27 2
    31    8   28 1
    32   24   29 1
    33   29   30 1
    34   29   31 2
    35    1   32 1
    36    1   33 1
    37    2   34 1
    38    2   35 1
    39    4   36 1
    40    4   37 1
    41    5   38 1
    42    5   39 1
    43    7   40 1
    44    7   41 1
    45    8   42 1
    46   10   43 1
    47   10   44 1
    48   11   45 1
    49   12   46 1
    50   12   47 1
    51   18   48 1
    52   18   49 1
    53   18   50 1
    54   23   51 1
    55   23   52 1
    56   23   53 1
    57   26   54 1
    58   26   55 1
    59   26   56 1
    60   28   57 1
    61   28   58 1
    62   28   59 1
    63   30   60 1
    64   30   61 1
    65   30   62 1
@<TRIPOS>MOLECULE
621
   52    55     0     0     0
SMALL
NO_CHARGES

@<TRIPOS>ATOM
      1 O1          7.5474    1.4947    0.0000 OH        1 <0>         0.0000
      2 O2          2.3727   -0.4535    0.0000 OS        1 <0>         0.0000
      3 O3          1.6498   -1.7582    0.0000 O         1 <0>         0.0000
      4 C1          6.0987   -0.0653    0.0000 CT        1 <0>         0.0000
      5 C2          6.0987    0.7597    0.0000 CT        1 <0>         0.0000
      6 C3          5.3843   -0.4777    0.0000 CT        1 <0>         0.0000
      7 C4          4.6698   -0.0653    0.0000 CT        1 <0>         0.0000
      8 C5          3.9192   -0.4833    0.0000 CT        1 <0>         0.0000
      9 C6          6.8793    1.0111    0.0000 CT        1 <0>         0.0000
     10 C7          5.3843    1.1722    0.0000 CT        1 <0>         0.0000
     11 C8          4.6698    0.7597    0.0000 CT        1 <0>         0.0000
     12 C9          6.8793   -0.3166    0.0000 CT        1 <0>         0.0000
     13 C10         3.9126   -1.3425    0.0000 CT        1 <0>         0.0000
     14 C11         5.3975   -1.3368    0.0000 CT        1 <0>         0.0000
     15 C12         7.3607    0.3473    0.0000 CT        1 <0>         0.0000
     16 C13         4.6567   -1.7722    0.0000 CT        1 <0>         0.0000
     17 C14         6.0987    1.5846    0.0000 CT        1 <0>         0.0000
     18 C15         3.1546   -0.0180    0.0000 CT        1 <0>         0.0000
     19 C16         3.9255    0.3416    0.0000 CT        1 <0>         0.0000
     20 C17         3.1409   -1.7960    0.0000 CT        1 <0>         0.0000
     21 C18         6.6257    1.7960    0.0000 CT        1 <0>         0.0000
     22 C19         2.3658   -1.3485    0.0000 C         1 <0>         0.0000
     23 H1          6.1685   -0.7215    0.0000 HC        1 <0>         0.0000
     24 H2          5.9583   -0.8032    0.0000 HC        1 <0>         0.0000
     25 H3          5.2415    0.2647    0.0000 HC        1 <0>         0.0000
     26 H4          3.9151   -2.0025    0.0000 HC        1 <0>         0.0000
     27 H5          7.5474    1.4947    0.0000 HO        1 <0>         0.0000
     28 H6          5.3843    1.1722    0.0000 HC        1 <0>         0.0000
     29 H7          5.3843    1.1722    0.0000 HC        1 <0>         0.0000
     30 H8          4.6698    0.7597    0.0000 HC        1 <0>         0.0000
     31 H9          4.6698    0.7597    0.0000 HC        1 <0>         0.0000
     32 H10         6.8793   -0.3166    0.0000 HC        1 <0>         0.0000
     33 H11         6.8793   -0.3166    0.0000 HC        1 <0>         0.0000
     34 H12         5.3975   -1.3368    0.0000 HC        1 <0>         0.0000
     35 H13         5.3975   -1.3368    0.0000 HC        1 <0>         0.0000
     36 H14         7.3607    0.3473    0.0000 HC        1 <0>         0.0000
     37 H15         7.3607    0.3473    0.0000 HC        1 <0>         0.0000
     38 H16         4.6567   -1.7722    0.0000 HC        1 <0>         0.0000
     39 H17         4.6567   -1.7722    0.0000 HC        1 <0>         0.0000
     40 H18         6.0987    1.5846    0.0000 HC        1 <0>         0.0000
     41 H19         6.0987    1.5846    0.0000 HC        1 <0>         0.0000
     42 H20         6.0987    1.5846    0.0000 HC        1 <0>         0.0000
     43 H21         3.1546   -0.0180    0.0000 H1        1 <0>         0.0000
     44 H22         3.1546   -0.0180    0.0000 H1        1 <0>         0.0000
     45 H23         3.9255    0.3416    0.0000 HC        1 <0>         0.0000
     46 H24         3.9255    0.3416    0.0000 HC        1 <0>         0.0000
     47 H25         3.9255    0.3416    0.0000 HC        1 <0>         0.0000
     48 H26         3.1409   -1.7960    0.0000 HC        1 <0>         0.0000
     49 H27         3.1409   -1.7960    0.0000 HC        1 <0>         0.0000
     50 H28         6.6257    1.7960    0.0000 HC        1 <0>         0.0000
     51 H29         6.6257    1.7960    0.0000 HC        1 <0>         0.0000
     52 H30         6.6257    1.7960    0.0000 HC        1 <0>         0.0000
@<TRIPOS>BOND
     1    1    9 1
     2    2   18 1
     3    2   22 1
     4    3   22 2
     5    4    5 1
     6    4    6 1
     7    4   12 1
     8    4   23 1
     9    5    9 1
    10    5   10 1
    11    5   17 1
    12    6    7 1
    13    6   14 1
    14    6   24 1
    15    7    8 1
    16    7   11 1
    17    7   25 1
    18    8   13 1
    19    8   18 1
    20    8   19 1
    21    9   15 1
    22    9   21 1
    23   10   11 1
    24   12   15 1
    25   13   16 1
    26   13   20 1
    27   13   26 1
    28   14   16 1
    29   20   22 1
    30    1   27 1
    31   10   28 1
    32   10   29 1
    33   11   30 1
    34   11   31 1
    35   12   32 1
    36   12   33 1
    37   14   34 1
    38   14   35 1
    39   15   36 1
    40   15   37 1
    41   16   38 1
    42   16   39 1
    43   17   40 1
    44   17   41 1
    45   17   42 1
    46   18   43 1
    47   18   44 1
    48   19   45 1
    49   19   46 1
    50   19   47 1
    51   20   48 1
    52   20   49 1
    53   21   50 1
    54   21   51 1
    55   21   52 1
@<TRIPOS>MOLECULE
624
   49    52     0     0     0
SMALL
NO_CHARGES

@<TRIPOS>ATOM
      1 O1          7.1353    1.7429    0.0000 OH        1 <0>         0.0000
      2 O2          1.6498   -1.8105    0.0000 O         1 <0>         0.0000
      3 C1          6.0985   -0.1176    0.0000 CT        1 <0>         0.0000
      4 C2          6.0985    0.7073    0.0000 CT        1 <0>         0.0000
      5 C3          5.3842   -0.5300    0.0000 CT        1 <0>         0.0000
      6 C4          4.6697   -0.1176    0.0000 CT        1 <0>         0.0000
      7 C5          3.9191   -0.5356    0.0000 CT        1 <0>         0.0000
      8 C6          5.3842    1.1197    0.0000 CT        1 <0>         0.0000
      9 C7          4.6697    0.7073    0.0000 CT        1 <0>         0.0000
     10 C8          6.8790    0.9588    0.0000 CT        1 <0>         0.0000
     11 C9          6.8790   -0.3689    0.0000 CT        1 <0>         0.0000
     12 C10         5.3974   -1.3891    0.0000 CT        1 <0>         0.0000
     13 C11         7.3604    0.2949    0.0000 CT        1 <0>         0.0000
     14 C12         3.9125   -1.3948    0.0000 CM        1 <0>         0.0000
     15 C13         4.6566   -1.8245    0.0000 CT        1 <0>         0.0000
     16 C14         6.0985    1.5322    0.0000 CT        1 <0>         0.0000
     17 C15         3.1546   -0.0703    0.0000 CT        1 <0>         0.0000
     18 C16         3.9254    0.2893    0.0000 CT        1 <0>         0.0000
     19 C17         2.3726   -0.5058    0.0000 CT        1 <0>         0.0000
     20 C18         3.1409   -1.8482    0.0000 CM        1 <0>         0.0000
     21 C19         2.3657   -1.4007    0.0000 C         1 <0>         0.0000
     22 H1          6.1683   -0.7738    0.0000 HC        1 <0>         0.0000
     23 H2          5.9581   -0.8555    0.0000 HC        1 <0>         0.0000
     24 H3          5.2413    0.2124    0.0000 HC        1 <0>         0.0000
     25 H4          7.1353    1.7429    0.0000 HO        1 <0>         0.0000
     26 H5          5.3842    1.1197    0.0000 HC        1 <0>         0.0000
     27 H6          5.3842    1.1197    0.0000 HC        1 <0>         0.0000
     28 H7          4.6697    0.7073    0.0000 HC        1 <0>         0.0000
     29 H8          4.6697    0.7073    0.0000 HC        1 <0>         0.0000
     30 H9          6.8790    0.9588    0.0000 H1        1 <0>         0.0000
     31 H10         6.8790   -0.3689    0.0000 HC        1 <0>         0.0000
     32 H11         6.8790   -0.3689    0.0000 HC        1 <0>         0.0000
     33 H12         5.3974   -1.3891    0.0000 HC        1 <0>         0.0000
     34 H13         5.3974   -1.3891    0.0000 HC        1 <0>         0.0000
     35 H14         7.3604    0.2949    0.0000 HC        1 <0>         0.0000
     36 H15         7.3604    0.2949    0.0000 HC        1 <0>         0.0000
     37 H16         4.6566   -1.8245    0.0000 HC        1 <0>         0.0000
     38 H17         4.6566   -1.8245    0.0000 HC        1 <0>         0.0000
     39 H18         6.0985    1.5322    0.0000 HC        1 <0>         0.0000
     40 H19         6.0985    1.5322    0.0000 HC        1 <0>         0.0000
     41 H20         6.0985    1.5322    0.0000 HC        1 <0>         0.0000
     42 H21         3.1546   -0.0703    0.0000 HC        1 <0>         0.0000
     43 H22         3.1546   -0.0703    0.0000 HC        1 <0>         0.0000
     44 H23         3.9254    0.2893    0.0000 HC        1 <0>         0.0000
     45 H24         3.9254    0.2893    0.0000 HC        1 <0>         0.0000
     46 H25         3.9254    0.2893    0.0000 HC        1 <0>         0.0000
     47 H26         2.3726   -0.5058    0.0000 HC        1 <0>         0.0000
     48 H27         2.3726   -0.5058    0.0000 HC        1 <0>         0.0000
     49 H28         3.1409   -1.8482    0.0000 HA        1 <0>         0.0000
@<TRIPOS>BOND
     1    1   10 1
     2    2   21 2
     3    3    4 1
     4    3    5 1
     5    3   11 1
     6    3   22 1
     7    4    8 1
     8    4   10 1
     9    4   16 1
    10    5    6 1
    11    5   12 1
    12    5   23 1
    13    6    7 1
    14    6    9 1
    15    6   24 1
    16    7   14 1
    17    7   17 1
    18    7   18 1
    19    8    9 1
    20   10   13 1
    21   11   13 1
    22   12   15 1
    23   14   15 1
    24   14   20 2
    25   17   19 1
    26   19   21 1
    27   20   21 1
    28    1   25 1
    29    8   26 1
    30    8   27 1
    31    9   28 1
    32    9   29 1
    33   10   30 1
    34   11   31 1
    35   11   32 1
    36   12   33 1
    37   12   34 1
    38   13   35 1
    39   13   36 1
    40   15   37 1
    41   15   38 1
    42   16   39 1
    43   16   40 1
    44   16   41 1
    45   17   42 1
    46   17   43 1
    47   18   44 1
    48   18   45 1
    49   18   46 1
    50   19   47 1
    51   19   48 1
    52   20   49 1
@<TRIPOS>MOLECULE
632
   69    68     0     0     0
SMALL
NO_CHARGES

@<TRIPOS>ATOM
      1 O1          2.0928   -0.2063    0.0000 OH        1 <0>         0.0000
      2 C1          9.9515    0.2063    0.0000 CT        1 <0>         0.0000
      3 C2         10.6658   -0.2063    0.0000 CT        1 <0>         0.0000
      4 C3          9.2371   -0.2063    0.0000 CT        1 <0>         0.0000
      5 C4         11.3804    0.2063    0.0000 CT        1 <0>         0.0000
      6 C5          8.5226    0.2063    0.0000 CT        1 <0>         0.0000
      7 C6         12.0947   -0.2063    0.0000 CT        1 <0>         0.0000
      8 C7          7.8082   -0.2063    0.0000 CT        1 <0>         0.0000
      9 C8         12.8091    0.2063    0.0000 CT        1 <0>         0.0000
     10 C9          7.0938    0.2063    0.0000 CT        1 <0>         0.0000
     11 C10        13.5236   -0.2063    0.0000 CT        1 <0>         0.0000
     12 C11         6.3793   -0.2063    0.0000 CT        1 <0>         0.0000
     13 C12        14.2380    0.2063    0.0000 CT        1 <0>         0.0000
     14 C13         5.6650    0.2063    0.0000 CT        1 <0>         0.0000
     15 C14        14.9524   -0.2063    0.0000 CT        1 <0>         0.0000
     16 C15         4.9504   -0.2063    0.0000 CT        1 <0>         0.0000
     17 C16        15.6668    0.2063    0.0000 CT        1 <0>         0.0000
     18 C17         4.2361    0.2063    0.0000 CT        1 <0>         0.0000
     19 C18        16.3812   -0.2063    0.0000 CT        1 <0>         0.0000
     20 C19         3.5217   -0.2063    0.0000 CT        1 <0>         0.0000
     21 C20        17.0957    0.2063    0.0000 CT        1 <0>         0.0000
     22 C21         2.8072    0.2063    0.0000 CT        1 <0>         0.0000
     23 C22        17.8101   -0.2063    0.0000 CT        1 <0>         0.0000
     24 H1          2.0928   -0.2063    0.0000 HO        1 <0>         0.0000
     25 H2          9.9515    0.2063    0.0000 HC        1 <0>         0.0000
     26 H3          9.9515    0.2063    0.0000 HC        1 <0>         0.0000
     27 H4         10.6658   -0.2063    0.0000 HC        1 <0>         0.0000
     28 H5         10.6658   -0.2063    0.0000 HC        1 <0>         0.0000
     29 H6          9.2371   -0.2063    0.0000 HC        1 <0>         0.0000
     30 H7          9.2371   -0.2063    0.0000 HC        1 <0>         0.0000
     31 H8         11.3804    0.2063    0.0000 HC        1 <0>         0.0000
     32 H9         11.3804    0.2063    0.0000 HC        1 <0>         0.0000
     33 H10         8.5226    0.2063    0.0000 HC        1 <0>         0.0000
     34 H11         8.5226    0.2063    0.0000 HC        1 <0>         0.0000
     35 H12        12.0947   -0.2063    0.0000 HC        1 <0>         0.0000
     36 H13        12.0947   -0.2063    0.0000 HC        1 <0>         0.0000
     37 H14         7.8082   -0.2063    0.0000 HC        1 <0>         0.0000
     38 H15         7.8082   -0.2063    0.0000 HC        1 <0>         0.0000
     39 H16        12.8091    0.2063    0.0000 HC        1 <0>         0.0000
     40 H17        12.8091    0.2063    0.0000 HC        1 <0>         0.0000
     41 H18         7.0938    0.2063    0.0000 HC        1 <0>         0.0000
     42 H19         7.0938    0.2063    0.0000 HC        1 <0>         0.0000
     43 H20        13.5236   -0.2063    0.0000 HC        1 <0>         0.0000
     44 H21        13.5236   -0.2063    0.0000 HC        1 <0>         0.0000
     45 H22         6.3793   -0.2063    0.0000 HC        1 <0>         0.0000
     46 H23         6.3793   -0.2063    0.0000 HC        1 <0>         0.0000
     47 H24        14.2380    0.2063    0.0000 HC        1 <0>         0.0000
     48 H25        14.2380    0.2063    0.0000 HC        1 <0>         0.0000
     49 H26         5.6650    0.2063    0.0000 HC        1 <0>         0.0000
     50 H27         5.6650    0.2063    0.0000 HC        1 <0>         0.0000
     51 H28        14.9524   -0.2063    0.0000 HC        1 <0>         0.0000
     52 H29        14.9524   -0.2063    0.0000 HC        1 <0>         0.0000
     53 H30         4.9504   -0.2063    0.0000 HC        1 <0>         0.0000
     54 H31         4.9504   -0.2063    0.0000 HC        1 <0>         0.0000
     55 H32        15.6668    0.2063    0.0000 HC        1 <0>         0.0000
     56 H33        15.6668    0.2063    0.0000 HC        1 <0>         0.0000
     57 H34         4.2361    0.2063    0.0000 HC        1 <0>         0.0000
     58 H35         4.2361    0.2063    0.0000 HC        1 <0>         0.0000
     59 H36        16.3812   -0.2063    0.0000 HC        1 <0>         0.0000
     60 H37        16.3812   -0.2063    0.0000 HC        1 <0>         0.0000
     61 H38         3.5217   -0.2063    0.0000 HC        1 <0>         0.0000
     62 H39         3.5217   -0.2063    0.0000 HC        1 <0>         0.0000
     63 H40        17.0957    0.2063    0.0000 HC        1 <0>         0.0000
     64 H41        17.0957    0.2063    0.0000 HC        1 <0>         0.0000
     65 H42         2.8072    0.2063    0.0000 H1        1 <0>         0.0000
     66 H43         2.8072    0.2063    0.0000 H1        1 <0>         0.0000
     67 H44        17.8101   -0.2063    0.0000 HC        1 <0>         0.0000
     68 H45        17.8101   -0.2063    0.0000 HC        1 <0>         0.0000
     69 H46        17.8101   -0.2063    0.0000 HC        1 <0>         0.0000
@<TRIPOS>BOND
     1    1   22 1
     2    2    3 1
     3    2    4 1
     4    3    5 1
     5    4    6 1
     6    5    7 1
     7    6    8 1
     8    7    9 1
     9    8   10 1
    10    9   11 1
    11   10   12 1
    12   11   13 1
    13   12   14 1
    14   13   15 1
    15   14   16 1
    16   15   17 1
    17   16   18 1
    18   17   19 1
    19   18   20 1
    20   19   21 1
    21   20   22 1
    22   21   23 1
    23    1   24 1
    24    2   25 1
    25    2   26 1
    26    3   27 1
    27    3   28 1
    28    4   29 1
    29    4   30 1
    30    5   31 1
    31    5   32 1
    32    6   33 1
    33    6   34 1
    34    7   35 1
    35    7   36 1
    36    8   37 1
    37    8   38 1
    38    9   39 1
    39    9   40 1
    40   10   41 1
    41   10   42 1
    42   11   43 1
    43   11   44 1
    44   12   45 1
    45   12   46 1
    46   13   47 1
    47   13   48 1
    48   14   49 1
    49   14   50 1
    50   15   51 1
    51   15   52 1
    52   16   53 1
    53   16   54 1
    54   17   55 1
    55   17   56 1
    56   18   57 1
    57   18   58 1
    58   19   59 1
    59   19   60 1
    60   20   61 1
    61   20   62 1
    62   21   63 1
    63   21   64 1
    64   22   65 1
    65   22   66 1
    66   23   67 1
    67   23   68 1
    68   23   69 1
@<TRIPOS>MOLECULE
635
   52    55     0     0     0
SMALL
NO_CHARGES

@<TRIPOS>ATOM
      1 O1          6.6263    1.5366    0.0000 OH        1 <0>         0.0000
      2 O2          3.9559    0.9126    0.0000 O         1 <0>         0.0000
      3 O3          7.4634    2.0559    0.0000 O         1 <0>         0.0000
      4 O4          8.9696    1.3822    0.0000 OH        1 <0>         0.0000
      5 O5          1.6500   -2.0181    0.0000 O         1 <0>         0.0000
      6 C1          6.0993    0.5001    0.0000 CT        1 <0>         0.0000
      7 C2          6.0993   -0.3249    0.0000 CT        1 <0>         0.0000
      8 C3          5.3849   -0.7374    0.0000 CT        1 <0>         0.0000
      9 C4          4.6703   -0.3249    0.0000 CT        1 <0>         0.0000
     10 C5          6.8799    0.7515    0.0000 CT        1 <0>         0.0000
     11 C6          6.8799   -0.5763    0.0000 CT        1 <0>         0.0000
     12 C7          5.3849    0.9126    0.0000 CT        1 <0>         0.0000
     13 C8          7.3614    0.0876    0.0000 CT        1 <0>         0.0000
     14 C9          3.9196   -0.7431    0.0000 CT        1 <0>         0.0000
     15 C10         5.3981   -1.5966    0.0000 CT        1 <0>         0.0000
     16 C11         4.6703    0.5001    0.0000 C         1 <0>         0.0000
     17 C12         6.0993    1.3251    0.0000 CT        1 <0>         0.0000
     18 C13         4.6572   -2.0321    0.0000 CT        1 <0>         0.0000
     19 C14         3.9130   -1.6024    0.0000 CM        1 <0>         0.0000
     20 C15         7.5482    1.2353    0.0000 C         1 <0>         0.0000
     21 C16         3.9259    0.0819    0.0000 CT        1 <0>         0.0000
     22 C17         3.1550   -0.2777    0.0000 CM        1 <0>         0.0000
     23 C18         3.1413   -2.0559    0.0000 CM        1 <0>         0.0000
     24 C19         8.3013    0.8984    0.0000 CT        1 <0>         0.0000
     25 C20         2.3729   -0.7132    0.0000 CM        1 <0>         0.0000
     26 C21         2.3660   -1.6083    0.0000 C         1 <0>         0.0000
     27 H1          6.1691   -0.9812    0.0000 HC        1 <0>         0.0000
     28 H2          5.9589   -1.0630    0.0000 HC        1 <0>         0.0000
     29 H3          5.2420    0.0051    0.0000 HC        1 <0>         0.0000
     30 H4          6.6263    1.5366    0.0000 HO        1 <0>         0.0000
     31 H5          8.9696    1.3822    0.0000 HO        1 <0>         0.0000
     32 H6          6.8799   -0.5763    0.0000 HC        1 <0>         0.0000
     33 H7          6.8799   -0.5763    0.0000 HC        1 <0>         0.0000
     34 H8          5.3849    0.9126    0.0000 HC        1 <0>         0.0000
     35 H9          5.3849    0.9126    0.0000 HC        1 <0>         0.0000
     36 H10         7.3614    0.0876    0.0000 HC        1 <0>         0.0000
     37 H11         7.3614    0.0876    0.0000 HC        1 <0>         0.0000
     38 H12         5.3981   -1.5966    0.0000 HC        1 <0>         0.0000
     39 H13         5.3981   -1.5966    0.0000 HC        1 <0>         0.0000
     40 H14         6.0993    1.3251    0.0000 HC        1 <0>         0.0000
     41 H15         6.0993    1.3251    0.0000 HC        1 <0>         0.0000
     42 H16         6.0993    1.3251    0.0000 HC        1 <0>         0.0000
     43 H17         4.6572   -2.0321    0.0000 HC        1 <0>         0.0000
     44 H18         4.6572   -2.0321    0.0000 HC        1 <0>         0.0000
     45 H19         3.9259    0.0819    0.0000 HC        1 <0>         0.0000
     46 H20         3.9259    0.0819    0.0000 HC        1 <0>         0.0000
     47 H21         3.9259    0.0819    0.0000 HC        1 <0>         0.0000
     48 H22         3.1550   -0.2777    0.0000 HA        1 <0>         0.0000
     49 H23         3.1413   -2.0559    0.0000 HA        1 <0>         0.0000
     50 H24         8.3013    0.8984    0.0000 H1        1 <0>         0.0000
     51 H25         8.3013    0.8984    0.0000 H1        1 <0>         0.0000
     52 H26         2.3729   -0.7132    0.0000 HA        1 <0>         0.0000
@<TRIPOS>BOND
     1    1   10 1
     2    2   16 2
     3    3   20 2
     4    4   24 1
     5    5   26 2
     6    6    7 1
     7    6   10 1
     8    6   12 1
     9    6   17 1
    10    7    8 1
    11    7   11 1
    12    7   27 1
    13    8    9 1
    14    8   15 1
    15    8   28 1
    16    9   14 1
    17    9   16 1
    18    9   29 1
    19   10   13 1
    20   10   20 1
    21   11   13 1
    22   12   16 1
    23   14   19 1
    24   14   21 1
    25   14   22 1
    26   15   18 1
    27   18   19 1
    28   19   23 2
    29   20   24 1
    30   22   25 2
    31   23   26 1
    32   25   26 1
    33    1   30 1
    34    4   31 1
    35   11   32 1
    36   11   33 1
    37   12   34 1
    38   12   35 1
    39   13   36 1
    40   13   37 1
    41   15   38 1
    42   15   39 1
    43   17   40 1
    44   17   41 1
    45   17   42 1
    46   18   43 1
    47   18   44 1
    48   21   45 1
    49   21   46 1
    50   21   47 1
    51   22   48 1
    52   23   49 1
    53   24   50 1
    54   24   51 1
    55   25   52 1
@<TRIPOS>MOLECULE
*****
   68    70     0     0     0
SMALL
NO_CHARGES

@<TRIPOS>ATOM
      1 C1         -0.7145    0.8250    0.0000 CT        1 <0>         0.0000
      2 C2          0.0000    0.4125    0.0000 CT        1 <0>         0.0000
      3 C3          0.0000   -0.4125    0.0000 CM        1 <0>         0.0000
      4 C4          0.7145    0.8250    0.0000 CT        1 <0>         0.0000
      5 C5         -1.4289    0.4125    0.0000 CT        1 <0>         0.0000
      6 C6          0.7145   -0.8250    0.0000 CM        1 <0>         0.0000
      7 C7         -0.7145   -0.8250    0.0000 CM        1 <0>         0.0000
      8 C8          1.4289    0.4125    0.0000 CT        1 <0>         0.0000
      9 C9         -1.4289   -0.4125    0.0000 CT        1 <0>         0.0000
     10 C10         1.4289   -0.4125    0.0000 CM        1 <0>         0.0000
     11 C11         0.7173    1.6494    0.0000 CT        1 <0>         0.0000
     12 C12        -2.1447   -0.8316    0.0000 CT        1 <0>         0.0000
     13 H1         -0.0107    1.3303    0.0000 HC        1 <0>         0.0000
     14 C13         2.1427    0.8155    0.0000 CT        1 <0>         0.0000
     15 C14         1.4245    2.0538    0.0000 CT        1 <0>         0.0000
     16 C15         1.4455    2.8693    0.0000 CT        1 <0>         0.0000
     17 O1          2.1525    3.2848    0.0000 OS        1 <0>         0.0000
     18 C16         2.1463    4.1002    0.0000 C         1 <0>         0.0000
     19 C17         1.4370    4.5025    0.0000 CT        1 <0>         0.0000
     20 C18         0.7572    4.0872    0.0000 CT        1 <0>         0.0000
     21 C19         0.7633    3.2718    0.0000 CT        1 <0>         0.0000
     22 O2          0.0416    4.5009    0.0000 OH        1 <0>         0.0000
     23 O3          2.8531    4.5156    0.0000 O         1 <0>         0.0000
     24 O4         -1.4325    2.8866    0.0000 O         1 <0>         0.0000
     25 C20        -1.4311    2.0616    0.0000 C         1 <0>         0.0000
     26 O5         -0.7159    1.6503    0.0000 OS        1 <0>         0.0000
     27 C21        -2.8600    2.0591    0.0000 CT        1 <0>         0.0000
     28 C22        -3.5738    1.6453    0.0000 CT        1 <0>         0.0000
     29 C23        -1.9299    0.8513    0.0000 CT        1 <0>         0.0000
     30 C24        -2.1448    1.6478    0.0000 CT        1 <0>         0.0000
     31 C25        -2.3570    0.8506    0.0000 CT        1 <0>         0.0000
     32 H2         -0.7145    0.8250    0.0000 H1        1 <0>         0.0000
     33 H3          0.7145    0.8250    0.0000 HC        1 <0>         0.0000
     34 H4         -1.4289    0.4125    0.0000 HC        1 <0>         0.0000
     35 H5         -1.4289    0.4125    0.0000 HC        1 <0>         0.0000
     36 H6          0.7145   -0.8250    0.0000 HA        1 <0>         0.0000
     37 H7         -0.7145   -0.8250    0.0000 HA        1 <0>         0.0000
     38 H8          1.4289    0.4125    0.0000 HC        1 <0>         0.0000
     39 H9         -1.4289   -0.4125    0.0000 HC        1 <0>         0.0000
     40 H10         1.4289   -0.4125    0.0000 HA        1 <0>         0.0000
     41 H11         0.7173    1.6494    0.0000 HC        1 <0>         0.0000
     42 H12         0.7173    1.6494    0.0000 HC        1 <0>         0.0000
     43 H13        -2.1447   -0.8316    0.0000 HC        1 <0>         0.0000
     44 H14        -2.1447   -0.8316    0.0000 HC        1 <0>         0.0000
     45 H15        -2.1447   -0.8316    0.0000 HC        1 <0>         0.0000
     46 H16         2.1427    0.8155    0.0000 HC        1 <0>         0.0000
     47 H17         2.1427    0.8155    0.0000 HC        1 <0>         0.0000
     48 H18         2.1427    0.8155    0.0000 HC        1 <0>         0.0000
     49 H19         1.4245    2.0538    0.0000 HC        1 <0>         0.0000
     50 H20         1.4245    2.0538    0.0000 HC        1 <0>         0.0000
     51 H21         1.4455    2.8693    0.0000 H1        1 <0>         0.0000
     52 H22         1.4370    4.5025    0.0000 HC        1 <0>         0.0000
     53 H23         1.4370    4.5025    0.0000 HC        1 <0>         0.0000
     54 H24         0.7572    4.0872    0.0000 H1        1 <0>         0.0000
     55 H25         0.7633    3.2718    0.0000 HC        1 <0>         0.0000
     56 H26         0.7633    3.2718    0.0000 HC        1 <0>         0.0000
     57 H27         0.0416    4.5009    0.0000 HO        1 <0>         0.0000
     58 H28        -2.8600    2.0591    0.0000 HC        1 <0>         0.0000
     59 H29        -2.8600    2.0591    0.0000 HC        1 <0>         0.0000
     60 H30        -3.5738    1.6453    0.0000 HC        1 <0>         0.0000
     61 H31        -3.5738    1.6453    0.0000 HC        1 <0>         0.0000
     62 H32        -3.5738    1.6453    0.0000 HC        1 <0>         0.0000
     63 H33        -1.9299    0.8513    0.0000 HC        1 <0>         0.0000
     64 H34        -1.9299    0.8513    0.0000 HC        1 <0>         0.0000
     65 H35        -1.9299    0.8513    0.0000 HC        1 <0>         0.0000
     66 H36        -2.3570    0.8506    0.0000 HC        1 <0>         0.0000
     67 H37        -2.3570    0.8506    0.0000 HC        1 <0>         0.0000
     68 H38        -2.3570    0.8506    0.0000 HC        1 <0>         0.0000
@<TRIPOS>BOND
     1    1   26 1
     2    1    2 1
     3    2   13 1
     4    2    3 1
     5    2    4 1
     6    4   11 1
     7    1    5 1
     8    3    6 1
     9    3    7 2
    10    4    8 1
    11    8   14 1
    12    7    9 1
    13    5    9 1
    14    9   12 1
    15    8   10 1
    16    6   10 2
    17   11   15 1
    18   15   16 1
    19   16   17 1
    20   16   21 1
    21   17   18 1
    22   18   19 1
    23   18   23 2
    24   19   20 1
    25   20   21 1
    26   20   22 1
    27   24   25 2
    28   25   30 1
    29   25   26 1
    30   27   30 1
    31   27   28 1
    32   29   30 1
    33   30   31 1
    34    1   32 1
    35    4   33 1
    36    5   34 1
    37    5   35 1
    38    6   36 1
    39    7   37 1
    40    8   38 1
    41    9   39 1
    42   10   40 1
    43   11   41 1
    44   11   42 1
    45   12   43 1
    46   12   44 1
    47   12   45 1
    48   14   46 1
    49   14   47 1
    50   14   48 1
    51   15   49 1
    52   15   50 1
    53   16   51 1
    54   19   52 1
    55   19   53 1
    56   20   54 1
    57   21   55 1
    58   21   56 1
    59   22   57 1
    60   27   58 1
    61   27   59 1
    62   28   60 1
    63   28   61 1
    64   28   62 1
    65   29   63 1
    66   29   64 1
    67   29   65 1
    68   31   66 1
    69   31   67 1
    70   31   68 1
@<TRIPOS>MOLECULE
*****
   71    72     0     0     0
SMALL
NO_CHARGES

 
@<TRIPOS>ATOM
      1 C1         -0.2169    0.6674    0.0000 CT        1 <0>         0.0000
      2 C2          0.5678    0.4125    0.0000 CT        1 <0>         0.0000
      3 C3          0.5678   -0.4125    0.0000 CT        1 <0>         0.0000
      4 C4         -0.7018    0.0000    0.0000 CT        1 <0>         0.0000
      5 C5         -0.2169   -0.6674    0.0000 CT        1 <0>         0.0000
      6 C6          1.2822   -0.8250    0.0000 CT        1 <0>         0.0000
      7 C7          1.9967    0.4125    0.0000 CM        1 <0>         0.0000
      8 C8          1.2822    0.8250    0.0000 CT        1 <0>         0.0000
      9 O1         -0.4718    1.4521    0.0000 OH        1 <0>         0.0000
     10 O2         -0.4718   -1.4521    0.0000 OH        1 <0>         0.0000
     11 C9          3.4256    2.0625    0.0000 CT        1 <0>         0.0000
     12 C10         2.7112    1.6500    0.0000 CT        1 <0>         0.0000
     13 C11         4.8546    2.0625    0.0000 C         1 <0>         0.0000
     14 C12         4.1401    1.6500    0.0000 CT        1 <0>         0.0000
     15 C13         6.2835    2.0625    0.0000 CT        1 <0>         0.0000
     16 O3          5.5691    1.6500    0.0000 OS        1 <0>         0.0000
     17 C14         6.9980    1.6500    0.0000 CT        1 <0>         0.0000
     18 O4          4.8546    2.8875    0.0000 O         1 <0>         0.0000
     19 C15         6.2835    2.8875    0.0000 CT        1 <0>         0.0000
     20 C16         1.9967   -0.4125    0.0000 CT        1 <0>         0.0000
     21 C17         2.7112   -0.8250    0.0000 CT        1 <0>         0.0000
     22 O5          2.7112   -1.6500    0.0000 OH        1 <0>         0.0000
     23 C18         4.1401   -0.8250    0.0000 CT        1 <0>         0.0000
     24 C19         4.8546   -0.4125    0.0000 CA        1 <0>         0.0000
     25 C20         5.5691   -0.8250    0.0000 CA        1 <0>         0.0000
     26 C21         6.2835   -0.4125    0.0000 CA        1 <0>         0.0000
     27 C22         6.2835    0.4125    0.0000 CA        1 <0>         0.0000
     28 C23         5.5691    0.8250    0.0000 CA        1 <0>         0.0000
     29 C24         3.4256   -0.4125    0.0000 CT        1 <0>         0.0000
     30 C25         2.7112    0.8250    0.0000 CM        1 <0>         0.0000
     31 C26         4.8546    0.4125    0.0000 CA        1 <0>         0.0000
     32 H1         -0.2169    0.6674    0.0000 H1        1 <0>         0.0000
     33 H2          0.5678    0.4125    0.0000 HC        1 <0>         0.0000
     34 H3          0.5678   -0.4125    0.0000 HC        1 <0>         0.0000
     35 H4         -0.7018    0.0000    0.0000 HC        1 <0>         0.0000
     36 H5         -0.7018    0.0000    0.0000 HC        1 <0>         0.0000
     37 H6         -0.2169   -0.6674    0.0000 H1        1 <0>         0.0000
     38 H7          1.2822   -0.8250    0.0000 HC        1 <0>         0.0000
     39 H8          1.2822   -0.8250    0.0000 HC        1 <0>         0.0000
     40 H9          1.9967    0.4125    0.0000 HA        1 <0>         0.0000
     41 H10         1.2822    0.8250    0.0000 HC        1 <0>         0.0000
     42 H11         1.2822    0.8250    0.0000 HC        1 <0>         0.0000
     43 H12        -0.4718    1.4521    0.0000 HO        1 <0>         0.0000
     44 H13        -0.4718   -1.4521    0.0000 HO        1 <0>         0.0000
     45 H14         3.4256    2.0625    0.0000 HC        1 <0>         0.0000
     46 H15         3.4256    2.0625    0.0000 HC        1 <0>         0.0000
     47 H16         2.7112    1.6500    0.0000 HC        1 <0>         0.0000
     48 H17         2.7112    1.6500    0.0000 HC        1 <0>         0.0000
     49 H18         4.1401    1.6500    0.0000 HC        1 <0>         0.0000
     50 H19         4.1401    1.6500    0.0000 HC        1 <0>         0.0000
     51 H20         6.2835    2.0625    0.0000 H1        1 <0>         0.0000
     52 H21         6.9980    1.6500    0.0000 HC        1 <0>         0.0000
     53 H22         6.9980    1.6500    0.0000 HC        1 <0>         0.0000
     54 H23         6.9980    1.6500    0.0000 HC        1 <0>         0.0000
     55 H24         6.2835    2.8875    0.0000 HC        1 <0>         0.0000
     56 H25         6.2835    2.8875    0.0000 HC        1 <0>         0.0000
     57 H26         6.2835    2.8875    0.0000 HC        1 <0>         0.0000
     58 H27         1.9967   -0.4125    0.0000 HC        1 <0>         0.0000
     59 H28         1.9967   -0.4125    0.0000 HC        1 <0>         0.0000
     60 H29         2.7112   -0.8250    0.0000 H1        1 <0>         0.0000
     61 H30         2.7112   -1.6500    0.0000 HO        1 <0>         0.0000
     62 H31         4.1401   -0.8250    0.0000 HC        1 <0>         0.0000
     63 H32         4.1401   -0.8250    0.0000 HC        1 <0>         0.0000
     64 H33         5.5691   -0.8250    0.0000 HA        1 <0>         0.0000
     65 H34         6.2835   -0.4125    0.0000 HA        1 <0>         0.0000
     66 H35         6.2835    0.4125    0.0000 HA        1 <0>         0.0000
     67 H36         5.5691    0.8250    0.0000 HA        1 <0>         0.0000
     68 H37         3.4256   -0.4125    0.0000 HC        1 <0>         0.0000
     69 H38         3.4256   -0.4125    0.0000 HC        1 <0>         0.0000
     70 H39         2.7112    0.8250    0.0000 HA        1 <0>         0.0000
     71 H40         4.8546    0.4125    0.0000 HA        1 <0>         0.0000
@<TRIPOS>BOND
     1    1    9 1
     2    1    2 1
     3    2    8 1
     4    2    3 1
     5    3    6 1
     6    1    4 1
     7    4    5 1
     8    3    5 1
     9    5   10 1
    10    6   20 1
    11    7    8 1
    12    7   30 2
    13   11   12 1
    14   11   14 1
    15   12   30 1
    16   13   14 1
    17   13   16 1
    18   13   18 2
    19   15   16 1
    20   15   17 1
    21   15   19 1
    22   20   21 1
    23   21   29 1
    24   21   22 1
    25   23   29 1
    26   23   24 1
    27   24   25 ar
    28   24   31 ar
    29   25   26 ar
    30   26   27 ar
    31   27   28 ar
    32   28   31 ar
    33    1   32 1
    34    2   33 1
    35    3   34 1
    36    4   35 1
    37    4   36 1
    38    5   37 1
    39    6   38 1
    40    6   39 1
    41    7   40 1
    42    8   41 1
    43    8   42 1
    44    9   43 1
    45   10   44 1
    46   11   45 1
    47   11   46 1
    48   12   47 1
    49   12   48 1
    50   14   49 1
    51   14   50 1
    52   15   51 1
    53   17   52 1
    54   17   53 1
    55   17   54 1
    56   19   55 1
    57   19   56 1
    58   19   57 1
    59   20   58 1
    60   20   59 1
    61   21   60 1
    62   22   61 1
    63   23   62 1
    64   23   63 1
    65   25   64 1
    66   26   65 1
    67   27   66 1
    68   28   67 1
    69   29   68 1
    70   29   69 1
    71   30   70 1
    72   31   71 1
@<TRIPOS>MOLECULE
655
   42    45     0     0     0
SMALL
NO_CHARGES

@<TRIPOS>ATOM
      1 O1          7.5769    1.7954    0.0000 O         1 <0>         0.0000
      2 O2          2.0916   -1.7576    0.0000 OH        1 <0>         0.0000
      3 C1          6.5402   -0.0648    0.0000 CT        1 <0>         0.0000
      4 C2          6.5402    0.7600    0.0000 CT        1 <0>         0.0000
      5 C3          5.8259   -0.4773    0.0000 CT        1 <0>         0.0000
      6 C4          5.1114   -0.0648    0.0000 CT        1 <0>         0.0000
      7 C5          5.8259    1.1726    0.0000 CT        1 <0>         0.0000
      8 C6          7.3206   -0.3162    0.0000 CT        1 <0>         0.0000
      9 C7          5.1114    0.7600    0.0000 CT        1 <0>         0.0000
     10 C8          5.8392   -1.3363    0.0000 CT        1 <0>         0.0000
     11 C9          7.3206    1.0114    0.0000 C         1 <0>         0.0000
     12 C10         7.8021    0.3477    0.0000 CT        1 <0>         0.0000
     13 C11         6.5402    1.5851    0.0000 CT        1 <0>         0.0000
     14 C12         4.3609   -0.4830    0.0000 CA        1 <0>         0.0000
     15 C13         5.0982   -1.7716    0.0000 CT        1 <0>         0.0000
     16 C14         4.3542   -1.3421    0.0000 CA        1 <0>         0.0000
     17 C15         3.5964   -0.0176    0.0000 CA        1 <0>         0.0000
     18 C16         3.5827   -1.7954    0.0000 CA        1 <0>         0.0000
     19 C17         2.8143   -0.4532    0.0000 CA        1 <0>         0.0000
     20 C18         2.8075   -1.3480    0.0000 CA        1 <0>         0.0000
     21 H1          6.6100   -0.7209    0.0000 HC        1 <0>         0.0000
     22 H2          6.3998   -0.8027    0.0000 HC        1 <0>         0.0000
     23 H3          5.6830    0.2652    0.0000 HC        1 <0>         0.0000
     24 H4          2.0916   -1.7576    0.0000 HO        1 <0>         0.0000
     25 H5          5.8259    1.1726    0.0000 HC        1 <0>         0.0000
     26 H6          5.8259    1.1726    0.0000 HC        1 <0>         0.0000
     27 H7          7.3206   -0.3162    0.0000 HC        1 <0>         0.0000
     28 H8          7.3206   -0.3162    0.0000 HC        1 <0>         0.0000
     29 H9          5.1114    0.7600    0.0000 HC        1 <0>         0.0000
     30 H10         5.1114    0.7600    0.0000 HC        1 <0>         0.0000
     31 H11         5.8392   -1.3363    0.0000 HC        1 <0>         0.0000
     32 H12         5.8392   -1.3363    0.0000 HC        1 <0>         0.0000
     33 H13         7.8021    0.3477    0.0000 HC        1 <0>         0.0000
     34 H14         7.8021    0.3477    0.0000 HC        1 <0>         0.0000
     35 H15         6.5402    1.5851    0.0000 HC        1 <0>         0.0000
     36 H16         6.5402    1.5851    0.0000 HC        1 <0>         0.0000
     37 H17         6.5402    1.5851    0.0000 HC        1 <0>         0.0000
     38 H18         5.0982   -1.7716    0.0000 HC        1 <0>         0.0000
     39 H19         5.0982   -1.7716    0.0000 HC        1 <0>         0.0000
     40 H20         3.5964   -0.0176    0.0000 HA        1 <0>         0.0000
     41 H21         3.5827   -1.7954    0.0000 HA        1 <0>         0.0000
     42 H22         2.8143   -0.4532    0.0000 HA        1 <0>         0.0000
@<TRIPOS>BOND
     1    1   11 2
     2    2   20 1
     3    3    4 1
     4    3    5 1
     5    3    8 1
     6    3   21 1
     7    4    7 1
     8    4   11 1
     9    4   13 1
    10    5    6 1
    11    5   10 1
    12    5   22 1
    13    6    9 1
    14    6   14 1
    15    6   23 1
    16    7    9 1
    17    8   12 1
    18   10   15 1
    19   11   12 1
    20   14   16 ar
    21   14   17 ar
    22   15   16 1
    23   16   18 ar
    24   17   19 ar
    25   18   20 ar
    26   19   20 ar
    27    2   24 1
    28    7   25 1
    29    7   26 1
    30    8   27 1
    31    8   28 1
    32    9   29 1
    33    9   30 1
    34   10   31 1
    35   10   32 1
    36   12   33 1
    37   12   34 1
    38   13   35 1
    39   13   36 1
    40   13   37 1
    41   15   38 1
    42   15   39 1
    43   17   40 1
    44   18   41 1
    45   19   42 1
@<TRIPOS>MOLECULE
676
   28    29     0     0     0
SMALL
NO_CHARGES

@<TRIPOS>ATOM
      1 O1          3.0791    0.2063    0.0000 OS        1 <0>         0.0000
      2 O2          1.6500    0.2063    0.0000 O         1 <0>         0.0000
      3 C1          3.7935    1.4438    0.0000 CA        1 <0>         0.0000
      4 C2          3.0791    1.0313    0.0000 CT        1 <0>         0.0000
      5 C3          2.3645   -1.0313    0.0000 CA        1 <0>         0.0000
      6 C4          3.7935    2.2688    0.0000 CA        1 <0>         0.0000
      7 C5          4.5080    1.0313    0.0000 CA        1 <0>         0.0000
      8 C6          2.3645   -0.2063    0.0000 C         1 <0>         0.0000
      9 C7          4.5080    2.6813    0.0000 CA        1 <0>         0.0000
     10 C8          5.2224    1.4438    0.0000 CA        1 <0>         0.0000
     11 C9          3.0791   -1.4438    0.0000 CA        1 <0>         0.0000
     12 C10         1.6500   -1.4438    0.0000 CA        1 <0>         0.0000
     13 C11         5.2224    2.2688    0.0000 CA        1 <0>         0.0000
     14 C12         3.0791   -2.2688    0.0000 CA        1 <0>         0.0000
     15 C13         1.6500   -2.2688    0.0000 CA        1 <0>         0.0000
     16 C14         2.3645   -2.6813    0.0000 CA        1 <0>         0.0000
     17 H1          3.0791    1.0313    0.0000 H1        1 <0>         0.0000
     18 H2          3.0791    1.0313    0.0000 H1        1 <0>         0.0000
     19 H3          3.7935    2.2688    0.0000 HA        1 <0>         0.0000
     20 H4          4.5080    1.0313    0.0000 HA        1 <0>         0.0000
     21 H5          4.5080    2.6813    0.0000 HA        1 <0>         0.0000
     22 H6          5.2224    1.4438    0.0000 HA        1 <0>         0.0000
     23 H7          3.0791   -1.4438    0.0000 HA        1 <0>         0.0000
     24 H8          1.6500   -1.4438    0.0000 HA        1 <0>         0.0000
     25 H9          5.2224    2.2688    0.0000 HA        1 <0>         0.0000
     26 H10         3.0791   -2.2688    0.0000 HA        1 <0>         0.0000
     27 H11         1.6500   -2.2688    0.0000 HA        1 <0>         0.0000
     28 H12         2.3645   -2.6813    0.0000 HA        1 <0>         0.0000
@<TRIPOS>BOND
     1    1    4 1
     2    1    8 1
     3    2    8 2
     4    3    4 1
     5    3    6 ar
     6    3    7 ar
     7    5    8 1
     8    5   11 ar
     9    5   12 ar
    10    6    9 ar
    11    7   10 ar
    12    9   13 ar
    13   10   13 ar
    14   11   14 ar
    15   12   15 ar
    16   14   16 ar
    17   15   16 ar
    18    4   17 1
    19    4   18 1
    20    6   19 1
    21    7   20 1
    22    9   21 1
    23   10   22 1
    24   11   23 1
    25   12   24 1
    26   13   25 1
    27   14   26 1
    28   15   27 1
    29   16   28 1
@<TRIPOS>MOLECULE
*****
   39    41     0     0     0
SMALL
NO_CHARGES

@<TRIPOS>ATOM
      1 C1          1.0993   -0.0375    0.0000 CA        1 <0>         0.0000
      2 C2          1.8138    0.3749    0.0000 CA        1 <0>         0.0000
      3 C3          1.8138    1.1999    0.0000 CA        1 <0>         0.0000
      4 C4          1.0993    1.6124    0.0000 CA        1 <0>         0.0000
      5 C5          0.3847    0.3749    0.0000 CB        1 <0>         0.0000
      6 C6          0.3847    1.1999    0.0000 CB        1 <0>         0.0000
      7 C7         -1.0441    0.3749    0.0000 CA        1 <0>         0.0000
      8 C8         -2.4730    0.3749    0.0000 CA        1 <0>         0.0000
      9 C9         -1.7586   -0.0375    0.0000 CT        1 <0>         0.0000
     10 C10        -1.7586   -0.8625    0.0000 CT        1 <0>         0.0000
     11 C11        -0.3296   -0.0375    0.0000 CA        1 <0>         0.0000
     12 O1         -0.3296   -0.8625    0.0000 OH        1 <0>         0.0000
     13 O2         -0.3296    1.6124    0.0000 OS        1 <0>         0.0000
     14 C12        -1.0441    1.1999    0.0000 C         1 <0>         0.0000
     15 O3         -1.7586    1.6124    0.0000 O         1 <0>         0.0000
     16 C13        -3.1875   -0.0375    0.0000 CA        1 <0>         0.0000
     17 C14        -2.4730    1.2000    0.0000 CA        1 <0>         0.0000
     18 C15        -3.1874    1.6125    0.0000 CA        1 <0>         0.0000
     19 C16        -3.9019    1.2000    0.0000 CA        1 <0>         0.0000
     20 C17        -3.9019    0.3750    0.0000 CA        1 <0>         0.0000
     21 C18        -2.4730   -1.2750    0.0000 C         1 <0>         0.0000
     22 O4         -3.1875   -0.8624    0.0000 O         1 <0>         0.0000
     23 C19        -2.4730   -2.1000    0.0000 CT        1 <0>         0.0000
     24 H1          1.0993   -0.0375    0.0000 HA        1 <0>         0.0000
     25 H2          1.8138    0.3749    0.0000 HA        1 <0>         0.0000
     26 H3          1.8138    1.1999    0.0000 HA        1 <0>         0.0000
     27 H4          1.0993    1.6124    0.0000 HA        1 <0>         0.0000
     28 H5         -1.7586   -0.0375    0.0000 HC        1 <0>         0.0000
     29 H6         -1.7586   -0.8625    0.0000 HC        1 <0>         0.0000
     30 H7         -1.7586   -0.8625    0.0000 HC        1 <0>         0.0000
     31 H8         -0.3296   -0.8625    0.0000 HO        1 <0>         0.0000
     32 H9         -3.1875   -0.0375    0.0000 HA        1 <0>         0.0000
     33 H10        -2.4730    1.2000    0.0000 HA        1 <0>         0.0000
     34 H11        -3.1874    1.6125    0.0000 HA        1 <0>         0.0000
     35 H12        -3.9019    1.2000    0.0000 HA        1 <0>         0.0000
     36 H13        -3.9019    0.3750    0.0000 HA        1 <0>         0.0000
     37 H14        -2.4730   -2.1000    0.0000 HC        1 <0>         0.0000
     38 H15        -2.4730   -2.1000    0.0000 HC        1 <0>         0.0000
     39 H16        -2.4730   -2.1000    0.0000 HC        1 <0>         0.0000
@<TRIPOS>BOND
     1    1    2 ar
     2    1    5 ar
     3    2    3 ar
     4    3    4 ar
     5    4    6 ar
     6    5   11 1
     7    5    6 ar
     8    6   13 1
     9    7   11 2
    10   13   14 1
    11    7   14 1
    12    7    9 1
    13    8    9 1
    14    8   16 ar
    15    9   10 1
    16   11   12 1
    17   14   15 2
    18   17   18 ar
    19   18   19 ar
    20   19   20 ar
    21    8   17 ar
    22   16   20 ar
    23   10   21 1
    24   21   22 2
    25   21   23 1
    26    1   24 1
    27    2   25 1
    28    3   26 1
    29    4   27 1
    30    9   28 1
    31   10   29 1
    32   10   30 1
    33   12   31 1
    34   16   32 1
    35   17   33 1
    36   18   34 1
    37   19   35 1
    38   20   36 1
    39   23   37 1
    40   23   38 1
    41   23   39 1
@<TRIPOS>MOLECULE
693
   37    41     0     0     0
SMALL
NO_CHARGES

@<TRIPOS>ATOM
      1 O1          4.1660   -0.4052    0.0000 OS        1 <0>         0.0000
      2 O2          4.8068    1.6446    0.0000 OS        1 <0>         0.0000
      3 O3          3.9452   -1.7994    0.0000 O         1 <0>         0.0000
      4 O4          2.0104    1.6637    0.0000 OH        1 <0>         0.0000
      5 O5          7.6032    1.6637    0.0000 OH        1 <0>         0.0000
      6 C1          4.8068    0.0604    0.0000 CT        1 <0>         0.0000
      7 C2          5.4477   -0.4052    0.0000 CA        1 <0>         0.0000
      8 C3          4.1207    0.4565    0.0000 CA        1 <0>         0.0000
      9 C4          5.4928    0.4565    0.0000 CA        1 <0>         0.0000
     10 C5          5.2029   -1.1587    0.0000 CA        1 <0>         0.0000
     11 C6          4.1207    1.2485    0.0000 CA        1 <0>         0.0000
     12 C7          5.4928    1.2485    0.0000 CA        1 <0>         0.0000
     13 C8          4.4108   -1.1587    0.0000 C         1 <0>         0.0000
     14 C9          6.2362   -0.6481    0.0000 CA        1 <0>         0.0000
     15 C10         3.4127    0.0329    0.0000 CA        1 <0>         0.0000
     16 C11         6.2009    0.0329    0.0000 CA        1 <0>         0.0000
     17 C12         5.3619   -1.9682    0.0000 CA        1 <0>         0.0000
     18 C13         3.4127    1.6720    0.0000 CA        1 <0>         0.0000
     19 C14         6.2009    1.6720    0.0000 CA        1 <0>         0.0000
     20 C15         6.5286   -1.5283    0.0000 CA        1 <0>         0.0000
     21 C16         2.6950    0.4399    0.0000 CA        1 <0>         0.0000
     22 C17         6.9186    0.4399    0.0000 CA        1 <0>         0.0000
     23 C18         6.0301   -2.1549    0.0000 CA        1 <0>         0.0000
     24 C19         2.6950    1.2650    0.0000 CA        1 <0>         0.0000
     25 C20         6.9186    1.2650    0.0000 CA        1 <0>         0.0000
     26 H1          2.0104    1.6637    0.0000 HO        1 <0>         0.0000
     27 H2          7.6032    1.6637    0.0000 HO        1 <0>         0.0000
     28 H3          6.2362   -0.6481    0.0000 HA        1 <0>         0.0000
     29 H4          3.4127    0.0329    0.0000 HA        1 <0>         0.0000
     30 H5          6.2009    0.0329    0.0000 HA        1 <0>         0.0000
     31 H6          5.3619   -1.9682    0.0000 HA        1 <0>         0.0000
     32 H7          3.4127    1.6720    0.0000 HA        1 <0>         0.0000
     33 H8          6.2009    1.6720    0.0000 HA        1 <0>         0.0000
     34 H9          6.5286   -1.5283    0.0000 HA        1 <0>         0.0000
     35 H10         2.6950    0.4399    0.0000 HA        1 <0>         0.0000
     36 H11         6.9186    0.4399    0.0000 HA        1 <0>         0.0000
     37 H12         6.0301   -2.1549    0.0000 HA        1 <0>         0.0000
@<TRIPOS>BOND
     1    1    6 1
     2    1   13 1
     3    2   11 1
     4    2   12 1
     5    3   13 2
     6    4   24 1
     7    5   25 1
     8    6    7 1
     9    6    8 1
    10    6    9 1
    11    7   10 ar
    12    7   14 ar
    13    8   11 ar
    14    8   15 ar
    15    9   12 ar
    16    9   16 ar
    17   10   13 1
    18   10   17 ar
    19   11   18 ar
    20   12   19 ar
    21   14   20 ar
    22   15   21 ar
    23   16   22 ar
    24   17   23 ar
    25   18   24 ar
    26   19   25 ar
    27   20   23 ar
    28   21   24 ar
    29   22   25 ar
    30    4   26 1
    31    5   27 1
    32   14   28 1
    33   15   29 1
    34   16   30 1
    35   17   31 1
    36   18   32 1
    37   19   33 1
    38   20   34 1
    39   21   35 1
    40   22   36 1
    41   23   37 1
@<TRIPOS>MOLECULE
*****
   60    65     0     0     0
SMALL
NO_CHARGES

@<TRIPOS>ATOM
      1 C1          9.3804   -5.1874    0.0000 CJ        1 <0>         0.0000
      2 C2          9.3762   -6.0125    0.0000 CJ        1 <0>         0.0000
      3 O1         10.0933   -5.5990    0.0000 OS        1 <0>         0.0000
      4 C3          7.2303   -6.4185    0.0000 CT        1 <0>         0.0000
      5 C4          7.2303   -7.2436    0.0000 C         1 <0>         0.0000
      6 C5          7.9466   -7.6561    0.0000 CM        1 <0>         0.0000
      7 C6          7.9466   -6.0060    0.0000 CT        1 <0>         0.0000
      8 C7          8.6586   -6.4185    0.0000 CT        1 <0>         0.0000
      9 C8          8.6550   -7.2436    0.0000 CM        1 <0>         0.0000
     10 C9          9.3677   -7.6590    0.0000 CT        1 <0>         0.0000
     11 C10        10.0841   -7.2496    0.0000 CT        1 <0>         0.0000
     12 C11        10.0841   -6.4263    0.0000 CT        1 <0>         0.0000
     13 C12        10.0975   -4.7805    0.0000 CT        1 <0>         0.0000
     14 C13        10.8067   -5.1978    0.0000 CT        1 <0>         0.0000
     15 C14        10.8013   -6.0238    0.0000 CT        1 <0>         0.0000
     16 C15        11.5853   -6.2841    0.0000 CT        1 <0>         0.0000
     17 C16        12.0750   -5.6191    0.0000 CT        1 <0>         0.0000
     18 C17        11.5937   -4.9466    0.0000 CT        1 <0>         0.0000
     19 O2         12.4180   -4.9476    0.0000 OS        1 <0>         0.0000
     20 C18        12.6736   -4.1638    0.0000 C         1 <0>         0.0000
     21 C19        12.0072   -3.6787    0.0000 CT        1 <0>         0.0000
     22 C20        11.3398   -4.1624    0.0000 CT        1 <0>         0.0000
     23 O3         13.4585   -3.9098    0.0000 O         1 <0>         0.0000
     24 C21        10.7976   -7.6636    0.0000 C         1 <0>         0.0000
     25 O4         10.7959   -8.4886    0.0000 O         1 <0>         0.0000
     26 O5         11.5130   -7.2527    0.0000 OS        1 <0>         0.0000
     27 C22        12.2266   -7.6667    0.0000 CT        1 <0>         0.0000
     28 O6          6.5161   -7.6564    0.0000 O         1 <0>         0.0000
     29 C23         8.6512   -5.5935    0.0000 CT        1 <0>         0.0000
     30 H1          9.3637   -6.8310    0.0000 HC        1 <0>         0.0000
     31 C24        10.8013   -4.3726    0.0000 CT        1 <0>         0.0000
     32 H2         10.7971   -6.8476    0.0000 HC        1 <0>         0.0000
     33 H3          9.3804   -5.1874    0.0000 H1        1 <0>         0.0000
     34 H4          7.2303   -6.4185    0.0000 HC        1 <0>         0.0000
     35 H5          7.2303   -6.4185    0.0000 HC        1 <0>         0.0000
     36 H6          7.9466   -7.6561    0.0000 HA        1 <0>         0.0000
     37 H7          7.9466   -6.0060    0.0000 HC        1 <0>         0.0000
     38 H8          7.9466   -6.0060    0.0000 HC        1 <0>         0.0000
     39 H9          9.3677   -7.6590    0.0000 HC        1 <0>         0.0000
     40 H10         9.3677   -7.6590    0.0000 HC        1 <0>         0.0000
     41 H11        10.0841   -7.2496    0.0000 HC        1 <0>         0.0000
     42 H12        10.0975   -4.7805    0.0000 HC        1 <0>         0.0000
     43 H13        10.0975   -4.7805    0.0000 HC        1 <0>         0.0000
     44 H14        11.5853   -6.2841    0.0000 HC        1 <0>         0.0000
     45 H15        11.5853   -6.2841    0.0000 HC        1 <0>         0.0000
     46 H16        12.0750   -5.6191    0.0000 HC        1 <0>         0.0000
     47 H17        12.0750   -5.6191    0.0000 HC        1 <0>         0.0000
     48 H18        12.0072   -3.6787    0.0000 HC        1 <0>         0.0000
     49 H19        12.0072   -3.6787    0.0000 HC        1 <0>         0.0000
     50 H20        11.3398   -4.1624    0.0000 HC        1 <0>         0.0000
     51 H21        11.3398   -4.1624    0.0000 HC        1 <0>         0.0000
     52 H22        12.2266   -7.6667    0.0000 H1        1 <0>         0.0000
     53 H23        12.2266   -7.6667    0.0000 H1        1 <0>         0.0000
     54 H24        12.2266   -7.6667    0.0000 H1        1 <0>         0.0000
     55 H25         8.6512   -5.5935    0.0000 HC        1 <0>         0.0000
     56 H26         8.6512   -5.5935    0.0000 HC        1 <0>         0.0000
     57 H27         8.6512   -5.5935    0.0000 HC        1 <0>         0.0000
     58 H28        10.8013   -4.3726    0.0000 HC        1 <0>         0.0000
     59 H29        10.8013   -4.3726    0.0000 HC        1 <0>         0.0000
     60 H30        10.8013   -4.3726    0.0000 HC        1 <0>         0.0000
@<TRIPOS>BOND
     1    7    8 1
     2    4    7 1
     3   14   15 1
     4   15   16 1
     5   16   17 1
     6   17   18 1
     7   14   18 1
     8    1    2 1
     9    1    3 1
    10    2    3 1
    11    8    9 1
    12    9   10 1
    13   18   19 1
    14   19   20 1
    15   20   21 1
    16   21   22 1
    17   18   22 1
    18   10   11 1
    19   20   23 2
    20   11   12 1
    21   11   24 1
    22    2    8 1
    23   24   25 2
    24    4    5 1
    25   24   26 1
    26    5    6 1
    27   26   27 1
    28    2   12 1
    29    5   28 2
    30   12   15 1
    31    8   29 1
    32   13   14 1
    33   12   30 1
    34    1   13 1
    35   14   31 1
    36    6    9 2
    37   15   32 1
    38    1   33 1
    39    4   34 1
    40    4   35 1
    41    6   36 1
    42    7   37 1
    43    7   38 1
    44   10   39 1
    45   10   40 1
    46   11   41 1
    47   13   42 1
    48   13   43 1
    49   16   44 1
    50   16   45 1
    51   17   46 1
    52   17   47 1
    53   21   48 1
    54   21   49 1
    55   22   50 1
    56   22   51 1
    57   27   52 1
    58   27   53 1
    59   27   54 1
    60   29   55 1
    61   29   56 1
    62   29   57 1
    63   31   58 1
    64   31   59 1
    65   31   60 1
@<TRIPOS>MOLECULE
717
   48    51     0     0     0
SMALL
NO_CHARGES

@<TRIPOS>ATOM
      1 O1          6.6263    1.5550    0.0000 OH        1 <0>         0.0000
      2 O2          1.6500   -1.9996    0.0000 O         1 <0>         0.0000
      3 C1          6.0993   -0.3064    0.0000 CT        1 <0>         0.0000
      4 C2          6.0993    0.5186    0.0000 CT        1 <0>         0.0000
      5 C3          5.3849   -0.7189    0.0000 CT        1 <0>         0.0000
      6 C4          4.6703   -0.3064    0.0000 CT        1 <0>         0.0000
      7 C5          5.3849    0.9311    0.0000 CT        1 <0>         0.0000
      8 C6          6.8799    0.7700    0.0000 CT        1 <0>         0.0000
      9 C7          6.8799   -0.5579    0.0000 CT        1 <0>         0.0000
     10 C8          4.6703    0.5186    0.0000 CT        1 <0>         0.0000
     11 C9          3.9196   -0.7246    0.0000 CT        1 <0>         0.0000
     12 C10         7.3614    0.1061    0.0000 CT        1 <0>         0.0000
     13 C11         5.3981   -1.5782    0.0000 CT        1 <0>         0.0000
     14 C12         6.0993    1.3436    0.0000 CT        1 <0>         0.0000
     15 C13         4.6572   -2.0136    0.0000 CT        1 <0>         0.0000
     16 C14         3.9130   -1.5839    0.0000 CM        1 <0>         0.0000
     17 C15         3.1550   -0.2592    0.0000 CT        1 <0>         0.0000
     18 C16         7.5482    1.2538    0.0000 C2        1 <0>         0.0000
     19 C17         2.3729   -0.6948    0.0000 CT        1 <0>         0.0000
     20 C18         3.1413   -2.0374    0.0000 CM        1 <0>         0.0000
     21 C19         2.3660   -1.5899    0.0000 C         1 <0>         0.0000
     22 C20         8.2165    1.7375    0.0000 C2        1 <0>         0.0000
     23 H1          6.1691   -0.9628    0.0000 HC        1 <0>         0.0000
     24 H2          5.9589   -1.0445    0.0000 HC        1 <0>         0.0000
     25 H3          5.2420    0.0236    0.0000 HC        1 <0>         0.0000
     26 H4          3.9323   -0.0647    0.0000 HC        1 <0>         0.0000
     27 H5          6.6263    1.5550    0.0000 HO        1 <0>         0.0000
     28 H6          5.3849    0.9311    0.0000 HC        1 <0>         0.0000
     29 H7          5.3849    0.9311    0.0000 HC        1 <0>         0.0000
     30 H8          6.8799   -0.5579    0.0000 HC        1 <0>         0.0000
     31 H9          6.8799   -0.5579    0.0000 HC        1 <0>         0.0000
     32 H10         4.6703    0.5186    0.0000 HC        1 <0>         0.0000
     33 H11         4.6703    0.5186    0.0000 HC        1 <0>         0.0000
     34 H12         7.3614    0.1061    0.0000 HC        1 <0>         0.0000
     35 H13         7.3614    0.1061    0.0000 HC        1 <0>         0.0000
     36 H14         5.3981   -1.5782    0.0000 HC        1 <0>         0.0000
     37 H15         5.3981   -1.5782    0.0000 HC        1 <0>         0.0000
     38 H16         6.0993    1.3436    0.0000 HC        1 <0>         0.0000
     39 H17         6.0993    1.3436    0.0000 HC        1 <0>         0.0000
     40 H18         6.0993    1.3436    0.0000 HC        1 <0>         0.0000
     41 H19         4.6572   -2.0136    0.0000 HC        1 <0>         0.0000
     42 H20         4.6572   -2.0136    0.0000 HC        1 <0>         0.0000
     43 H21         3.1550   -0.2592    0.0000 HC        1 <0>         0.0000
     44 H22         3.1550   -0.2592    0.0000 HC        1 <0>         0.0000
     45 H23         2.3729   -0.6948    0.0000 HC        1 <0>         0.0000
     46 H24         2.3729   -0.6948    0.0000 HC        1 <0>         0.0000
     47 H25         3.1413   -2.0374    0.0000 HA        1 <0>         0.0000
     48 H26         8.2165    1.7375    0.0000 HC        1 <0>         0.0000
@<TRIPOS>BOND
     1    1    8 1
     2    2   21 2
     3    3    4 1
     4    3    5 1
     5    3    9 1
     6    3   23 1
     7    4    7 1
     8    4    8 1
     9    4   14 1
    10    5    6 1
    11    5   13 1
    12    5   24 1
    13    6   10 1
    14    6   11 1
    15    6   25 1
    16    7   10 1
    17    8   12 1
    18    8   18 1
    19    9   12 1
    20   11   16 1
    21   11   17 1
    22   11   26 1
    23   13   15 1
    24   15   16 1
    25   16   20 2
    26   17   19 1
    27   18   22 3
    28   19   21 1
    29   20   21 1
    30    1   27 1
    31    7   28 1
    32    7   29 1
    33    9   30 1
    34    9   31 1
    35   10   32 1
    36   10   33 1
    37   12   34 1
    38   12   35 1
    39   13   36 1
    40   13   37 1
    41   14   38 1
    42   14   39 1
    43   14   40 1
    44   15   41 1
    45   15   42 1
    46   17   43 1
    47   17   44 1
    48   19   45 1
    49   19   46 1
    50   20   47 1
    51   22   48 1
@<TRIPOS>MOLECULE
741
   56    59     0     0     0
SMALL
NO_CHARGES

@<TRIPOS>ATOM
      1 O1          6.6263    1.5366    0.0000 OH        1 <0>         0.0000
      2 O2          3.9559    0.9126    0.0000 OH        1 <0>         0.0000
      3 O3          7.4634    2.0559    0.0000 O         1 <0>         0.0000
      4 O4          8.9696    1.3822    0.0000 OH        1 <0>         0.0000
      5 O5          1.6500   -2.0181    0.0000 O         1 <0>         0.0000
      6 C1          6.0993    0.5001    0.0000 CT        1 <0>         0.0000
      7 C2          6.0993   -0.3249    0.0000 CT        1 <0>         0.0000
      8 C3          5.3849   -0.7374    0.0000 CT        1 <0>         0.0000
      9 C4          4.6703   -0.3249    0.0000 CT        1 <0>         0.0000
     10 C5          6.8799    0.7515    0.0000 CT        1 <0>         0.0000
     11 C6          5.3849    0.9126    0.0000 CT        1 <0>         0.0000
     12 C7          3.9196   -0.7431    0.0000 CT        1 <0>         0.0000
     13 C8          4.6703    0.5001    0.0000 CT        1 <0>         0.0000
     14 C9          6.8799   -0.5763    0.0000 CT        1 <0>         0.0000
     15 C10         7.3614    0.0876    0.0000 CT        1 <0>         0.0000
     16 C11         5.3981   -1.5966    0.0000 CT        1 <0>         0.0000
     17 C12         6.0993    1.3251    0.0000 CT        1 <0>         0.0000
     18 C13         3.9130   -1.6024    0.0000 CM        1 <0>         0.0000
     19 C14         4.6572   -2.0321    0.0000 CT        1 <0>         0.0000
     20 C15         3.1550   -0.2777    0.0000 CT        1 <0>         0.0000
     21 C16         3.9259    0.0819    0.0000 CT        1 <0>         0.0000
     22 C17         7.5482    1.2353    0.0000 C         1 <0>         0.0000
     23 C18         2.3729   -0.7132    0.0000 CT        1 <0>         0.0000
     24 C19         3.1413   -2.0559    0.0000 CM        1 <0>         0.0000
     25 C20         2.3660   -1.6083    0.0000 C         1 <0>         0.0000
     26 C21         8.3013    0.8984    0.0000 CT        1 <0>         0.0000
     27 H1          6.1691   -0.9812    0.0000 HC        1 <0>         0.0000
     28 H2          5.9589   -1.0630    0.0000 HC        1 <0>         0.0000
     29 H3          5.2420    0.0051    0.0000 HC        1 <0>         0.0000
     30 H4          6.6263    1.5366    0.0000 HO        1 <0>         0.0000
     31 H5          3.9559    0.9126    0.0000 HO        1 <0>         0.0000
     32 H6          8.9696    1.3822    0.0000 HO        1 <0>         0.0000
     33 H7          5.3849    0.9126    0.0000 HC        1 <0>         0.0000
     34 H8          5.3849    0.9126    0.0000 HC        1 <0>         0.0000
     35 H9          4.6703    0.5001    0.0000 H1        1 <0>         0.0000
     36 H10         6.8799   -0.5763    0.0000 HC        1 <0>         0.0000
     37 H11         6.8799   -0.5763    0.0000 HC        1 <0>         0.0000
     38 H12         7.3614    0.0876    0.0000 HC        1 <0>         0.0000
     39 H13         7.3614    0.0876    0.0000 HC        1 <0>         0.0000
     40 H14         5.3981   -1.5966    0.0000 HC        1 <0>         0.0000
     41 H15         5.3981   -1.5966    0.0000 HC        1 <0>         0.0000
     42 H16         6.0993    1.3251    0.0000 HC        1 <0>         0.0000
     43 H17         6.0993    1.3251    0.0000 HC        1 <0>         0.0000
     44 H18         6.0993    1.3251    0.0000 HC        1 <0>         0.0000
     45 H19         4.6572   -2.0321    0.0000 HC        1 <0>         0.0000
     46 H20         4.6572   -2.0321    0.0000 HC        1 <0>         0.0000
     47 H21         3.1550   -0.2777    0.0000 HC        1 <0>         0.0000
     48 H22         3.1550   -0.2777    0.0000 HC        1 <0>         0.0000
     49 H23         3.9259    0.0819    0.0000 HC        1 <0>         0.0000
     50 H24         3.9259    0.0819    0.0000 HC        1 <0>         0.0000
     51 H25         3.9259    0.0819    0.0000 HC        1 <0>         0.0000
     52 H26         2.3729   -0.7132    0.0000 HC        1 <0>         0.0000
     53 H27         2.3729   -0.7132    0.0000 HC        1 <0>         0.0000
     54 H28         3.1413   -2.0559    0.0000 HA        1 <0>         0.0000
     55 H29         8.3013    0.8984    0.0000 H1        1 <0>         0.0000
     56 H30         8.3013    0.8984    0.0000 H1        1 <0>         0.0000
@<TRIPOS>BOND
     1    1   10 1
     2    2   13 1
     3    3   22 2
     4    4   26 1
     5    5   25 2
     6    6    7 1
     7    6   10 1
     8    6   11 1
     9    6   17 1
    10    7    8 1
    11    7   14 1
    12    7   27 1
    13    8    9 1
    14    8   16 1
    15    8   28 1
    16    9   12 1
    17    9   13 1
    18    9   29 1
    19   10   15 1
    20   10   22 1
    21   11   13 1
    22   12   18 1
    23   12   20 1
    24   12   21 1
    25   14   15 1
    26   16   19 1
    27   18   19 1
    28   18   24 2
    29   20   23 1
    30   22   26 1
    31   23   25 1
    32   24   25 1
    33    1   30 1
    34    2   31 1
    35    4   32 1
    36   11   33 1
    37   11   34 1
    38   13   35 1
    39   14   36 1
    40   14   37 1
    41   15   38 1
    42   15   39 1
    43   16   40 1
    44   16   41 1
    45   17   42 1
    46   17   43 1
    47   17   44 1
    48   19   45 1
    49   19   46 1
    50   20   47 1
    51   20   48 1
    52   21   49 1
    53   21   50 1
    54   21   51 1
    55   23   52 1
    56   23   53 1
    57   24   54 1
    58   26   55 1
    59   26   56 1
@<TRIPOS>MOLECULE
ChEBI
   26    25     0     0     0
SMALL
NO_CHARGES

@<TRIPOS>ATOM
      1 C1          4.3754   -2.8827    0.0000 CT        1 <0>         0.0000
      2 C2          5.0946   -3.2870    0.0000 CT        1 <0>         0.0000
      3 C3          5.8075   -2.8663    0.0000 CT        1 <0>         0.0000
      4 C4          6.5267   -3.2705    0.0000 CT        1 <0>         0.0000
      5 C5          7.2397   -2.8498    0.0000 CT        1 <0>         0.0000
      6 C6          7.9588   -3.2540    0.0000 CT        1 <0>         0.0000
      7 O1          3.6748   -3.2962    0.0000 OH        1 <0>         0.0000
      8 O2          5.1008   -4.1119    0.0000 OH        1 <0>         0.0000
      9 O3          5.8013   -2.0413    0.0000 OH        1 <0>         0.0000
     10 O4          6.5329   -4.0955    0.0000 OH        1 <0>         0.0000
     11 O5          7.2334   -2.0248    0.0000 OH        1 <0>         0.0000
     12 O6          7.9650   -4.0790    0.0000 OH        1 <0>         0.0000
     13 H1          4.3754   -2.8827    0.0000 H1        1 <0>         0.0000
     14 H2          4.3754   -2.8827    0.0000 H1        1 <0>         0.0000
     15 H3          5.0946   -3.2870    0.0000 H1        1 <0>         0.0000
     16 H4          5.8075   -2.8663    0.0000 H1        1 <0>         0.0000
     17 H5          6.5267   -3.2705    0.0000 H1        1 <0>         0.0000
     18 H6          7.2397   -2.8498    0.0000 H1        1 <0>         0.0000
     19 H7          7.9588   -3.2540    0.0000 H1        1 <0>         0.0000
     20 H8          7.9588   -3.2540    0.0000 H1        1 <0>         0.0000
     21 H9          3.6748   -3.2962    0.0000 HO        1 <0>         0.0000
     22 H10         5.1008   -4.1119    0.0000 HO        1 <0>         0.0000
     23 H11         5.8013   -2.0413    0.0000 HO        1 <0>         0.0000
     24 H12         6.5329   -4.0955    0.0000 HO        1 <0>         0.0000
     25 H13         7.2334   -2.0248    0.0000 HO        1 <0>         0.0000
     26 H14         7.9650   -4.0790    0.0000 HO        1 <0>         0.0000
@<TRIPOS>BOND
     1    1    7 1
     2    1    2 1
     3    2    8 1
     4    2    3 1
     5    3    9 1
     6    3    4 1
     7    4   10 1
     8    4    5 1
     9    5   11 1
    10    5    6 1
    11    6   12 1
    12    1   13 1
    13    1   14 1
    14    2   15 1
    15    3   16 1
    16    4   17 1
    17    5   18 1
    18    6   19 1
    19    6   20 1
    20    7   21 1
    21    8   22 1
    22    9   23 1
    23   10   24 1
    24   11   25 1
    25   12   26 1
@<TRIPOS>MOLECULE
755
   50    50     0     0     0
SMALL
NO_CHARGES

@<TRIPOS>ATOM
      1 O1          2.0930    0.0000    0.0000 OH        1 <0>         0.0000
      2 O2          2.8075    1.2375    0.0000 O         1 <0>         0.0000
      3 C1          9.9524    0.4125    0.0000 CT        1 <0>         0.0000
      4 C2         10.6668    0.0000    0.0000 CT        1 <0>         0.0000
      5 C3         10.6668   -0.8250    0.0000 CT        1 <0>         0.0000
      6 C4          9.2379    0.0000    0.0000 CM        1 <0>         0.0000
      7 C5          9.9524   -1.2375    0.0000 CT        1 <0>         0.0000
      8 C6          9.2379   -0.8250    0.0000 CM        1 <0>         0.0000
      9 C7         10.3649    1.1270    0.0000 CT        1 <0>         0.0000
     10 C8          9.5398    1.1270    0.0000 CT        1 <0>         0.0000
     11 C9          8.5234    0.4125    0.0000 CM        1 <0>         0.0000
     12 C10         8.5234   -1.2375    0.0000 CT        1 <0>         0.0000
     13 C11         7.8089    0.0000    0.0000 CM        1 <0>         0.0000
     14 C12         7.0944    0.4125    0.0000 CM        1 <0>         0.0000
     15 C13         7.0944    1.2375    0.0000 CT        1 <0>         0.0000
     16 C14         6.3799    0.0000    0.0000 CM        1 <0>         0.0000
     17 C15         5.6655    0.4125    0.0000 CM        1 <0>         0.0000
     18 C16         4.9509    0.0000    0.0000 CM        1 <0>         0.0000
     19 C17         4.2365    0.4125    0.0000 CM        1 <0>         0.0000
     20 C18         4.2365    1.2375    0.0000 CT        1 <0>         0.0000
     21 C19         3.5220    0.0000    0.0000 CM        1 <0>         0.0000
     22 C20         2.8075    0.4125    0.0000 C         1 <0>         0.0000
     23 H1          2.0930    0.0000    0.0000 HO        1 <0>         0.0000
     24 H2         10.6668    0.0000    0.0000 HC        1 <0>         0.0000
     25 H3         10.6668    0.0000    0.0000 HC        1 <0>         0.0000
     26 H4         10.6668   -0.8250    0.0000 HC        1 <0>         0.0000
     27 H5         10.6668   -0.8250    0.0000 HC        1 <0>         0.0000
     28 H6          9.9524   -1.2375    0.0000 HC        1 <0>         0.0000
     29 H7          9.9524   -1.2375    0.0000 HC        1 <0>         0.0000
     30 H8         10.3649    1.1270    0.0000 HC        1 <0>         0.0000
     31 H9         10.3649    1.1270    0.0000 HC        1 <0>         0.0000
     32 H10        10.3649    1.1270    0.0000 HC        1 <0>         0.0000
     33 H11         9.5398    1.1270    0.0000 HC        1 <0>         0.0000
     34 H12         9.5398    1.1270    0.0000 HC        1 <0>         0.0000
     35 H13         9.5398    1.1270    0.0000 HC        1 <0>         0.0000
     36 H14         8.5234    0.4125    0.0000 HA        1 <0>         0.0000
     37 H15         8.5234   -1.2375    0.0000 HC        1 <0>         0.0000
     38 H16         8.5234   -1.2375    0.0000 HC        1 <0>         0.0000
     39 H17         8.5234   -1.2375    0.0000 HC        1 <0>         0.0000
     40 H18         7.8089    0.0000    0.0000 HA        1 <0>         0.0000
     41 H19         7.0944    1.2375    0.0000 HC        1 <0>         0.0000
     42 H20         7.0944    1.2375    0.0000 HC        1 <0>         0.0000
     43 H21         7.0944    1.2375    0.0000 HC        1 <0>         0.0000
     44 H22         6.3799    0.0000    0.0000 HA        1 <0>         0.0000
     45 H23         5.6655    0.4125    0.0000 HA        1 <0>         0.0000
     46 H24         4.9509    0.0000    0.0000 HA        1 <0>         0.0000
     47 H25         4.2365    1.2375    0.0000 HC        1 <0>         0.0000
     48 H26         4.2365    1.2375    0.0000 HC        1 <0>         0.0000
     49 H27         4.2365    1.2375    0.0000 HC        1 <0>         0.0000
     50 H28         3.5220    0.0000    0.0000 HA        1 <0>         0.0000
@<TRIPOS>BOND
     1    1   22 1
     2    2   22 2
     3    3    4 1
     4    3    6 1
     5    3    9 1
     6    3   10 1
     7    4    5 1
     8    5    7 1
     9    6    8 2
    10    6   11 1
    11    7    8 1
    12    8   12 1
    13   11   13 2
    14   13   14 1
    15   14   15 1
    16   14   16 2
    17   16   17 1
    18   17   18 2
    19   18   19 1
    20   19   20 1
    21   19   21 2
    22   21   22 1
    23    1   23 1
    24    4   24 1
    25    4   25 1
    26    5   26 1
    27    5   27 1
    28    7   28 1
    29    7   29 1
    30    9   30 1
    31    9   31 1
    32    9   32 1
    33   10   33 1
    34   10   34 1
    35   10   35 1
    36   11   36 1
    37   12   37 1
    38   12   38 1
    39   12   39 1
    40   13   40 1
    41   15   41 1
    42   15   42 1
    43   15   43 1
    44   16   44 1
    45   17   45 1
    46   18   46 1
    47   20   47 1
    48   20   48 1
    49   20   49 1
    50   21   50 1
@<TRIPOS>MOLECULE
770
   59    59     0     0     0
SMALL
NO_CHARGES

@<TRIPOS>ATOM
      1 O1          9.8471   -1.7365    0.0000 OH        1 <0>         0.0000
      2 O2          7.4975   -3.4435    0.0000 O         1 <0>         0.0000
      3 O3          8.3950    0.9685    0.0000 OH        1 <0>         0.0000
      4 O4          2.1365   -3.1799    0.0000 OH        1 <0>         0.0000
      5 O5          2.5781   -1.8208    0.0000 O         1 <0>         0.0000
      6 C1          7.7275   -1.9915    0.0000 CT        1 <0>         0.0000
      7 C2          8.3950   -1.5066    0.0000 CT        1 <0>         0.0000
      8 C3          9.0624   -1.9915    0.0000 CT        1 <0>         0.0000
      9 C4          8.8075   -2.7761    0.0000 CT        1 <0>         0.0000
     10 C5          6.9429   -1.7365    0.0000 CT        1 <0>         0.0000
     11 C6          7.9825   -2.7761    0.0000 C         1 <0>         0.0000
     12 C7          6.3298   -2.2886    0.0000 CT        1 <0>         0.0000
     13 C8          8.3950   -0.6815    0.0000 CM        1 <0>         0.0000
     14 C9          5.5451   -2.0337    0.0000 CT        1 <0>         0.0000
     15 C10         9.1094   -0.2690    0.0000 CM        1 <0>         0.0000
     16 C11         4.9320   -2.5857    0.0000 CT        1 <0>         0.0000
     17 C12         9.1094    0.5560    0.0000 CT        1 <0>         0.0000
     18 C13         9.8239    0.9685    0.0000 CT        1 <0>         0.0000
     19 C14         4.1474   -2.3308    0.0000 CT        1 <0>         0.0000
     20 C15         9.8239    1.7935    0.0000 CT        1 <0>         0.0000
     21 C16         3.5343   -2.8828    0.0000 CT        1 <0>         0.0000
     22 C17        10.5385    2.2060    0.0000 CT        1 <0>         0.0000
     23 C18        10.5385    3.0310    0.0000 CT        1 <0>         0.0000
     24 C19         2.7496   -2.6278    0.0000 C         1 <0>         0.0000
     25 C20        11.2529    3.4435    0.0000 CT        1 <0>         0.0000
     26 H1          9.8471   -1.7365    0.0000 HO        1 <0>         0.0000
     27 H2          8.3950    0.9685    0.0000 HO        1 <0>         0.0000
     28 H3          2.1365   -3.1799    0.0000 HO        1 <0>         0.0000
     29 H4          7.7275   -1.9915    0.0000 HC        1 <0>         0.0000
     30 H5          8.3950   -1.5066    0.0000 HC        1 <0>         0.0000
     31 H6          9.0624   -1.9915    0.0000 H1        1 <0>         0.0000
     32 H7          8.8075   -2.7761    0.0000 HC        1 <0>         0.0000
     33 H8          8.8075   -2.7761    0.0000 HC        1 <0>         0.0000
     34 H9          6.9429   -1.7365    0.0000 HC        1 <0>         0.0000
     35 H10         6.9429   -1.7365    0.0000 HC        1 <0>         0.0000
     36 H11         6.3298   -2.2886    0.0000 HC        1 <0>         0.0000
     37 H12         6.3298   -2.2886    0.0000 HC        1 <0>         0.0000
     38 H13         8.3950   -0.6815    0.0000 HA        1 <0>         0.0000
     39 H14         5.5451   -2.0337    0.0000 HC        1 <0>         0.0000
     40 H15         5.5451   -2.0337    0.0000 HC        1 <0>         0.0000
     41 H16         9.1094   -0.2690    0.0000 HA        1 <0>         0.0000
     42 H17         4.9320   -2.5857    0.0000 HC        1 <0>         0.0000
     43 H18         4.9320   -2.5857    0.0000 HC        1 <0>         0.0000
     44 H19         9.1094    0.5560    0.0000 H1        1 <0>         0.0000
     45 H20         9.8239    0.9685    0.0000 HC        1 <0>         0.0000
     46 H21         9.8239    0.9685    0.0000 HC        1 <0>         0.0000
     47 H22         4.1474   -2.3308    0.0000 HC        1 <0>         0.0000
     48 H23         4.1474   -2.3308    0.0000 HC        1 <0>         0.0000
     49 H24         9.8239    1.7935    0.0000 HC        1 <0>         0.0000
     50 H25         9.8239    1.7935    0.0000 HC        1 <0>         0.0000
     51 H26         3.5343   -2.8828    0.0000 HC        1 <0>         0.0000
     52 H27         3.5343   -2.8828    0.0000 HC        1 <0>         0.0000
     53 H28        10.5385    2.2060    0.0000 HC        1 <0>         0.0000
     54 H29        10.5385    2.2060    0.0000 HC        1 <0>         0.0000
     55 H30        10.5385    3.0310    0.0000 HC        1 <0>         0.0000
     56 H31        10.5385    3.0310    0.0000 HC        1 <0>         0.0000
     57 H32        11.2529    3.4435    0.0000 HC        1 <0>         0.0000
     58 H33        11.2529    3.4435    0.0000 HC        1 <0>         0.0000
     59 H34        11.2529    3.4435    0.0000 HC        1 <0>         0.0000
@<TRIPOS>BOND
     1    1    8 1
     2    2   11 2
     3    3   17 1
     4    4   24 1
     5    5   24 2
     6    6    7 1
     7    6   10 1
     8    6   11 1
     9    7    8 1
    10    7   13 1
    11    8    9 1
    12    9   11 1
    13   10   12 1
    14   12   14 1
    15   13   15 2
    16   14   16 1
    17   15   17 1
    18   16   19 1
    19   17   18 1
    20   18   20 1
    21   19   21 1
    22   20   22 1
    23   21   24 1
    24   22   23 1
    25   23   25 1
    26    1   26 1
    27    3   27 1
    28    4   28 1
    29    6   29 1
    30    7   30 1
    31    8   31 1
    32    9   32 1
    33    9   33 1
    34   10   34 1
    35   10   35 1
    36   12   36 1
    37   12   37 1
    38   13   38 1
    39   14   39 1
    40   14   40 1
    41   15   41 1
    42   16   42 1
    43   16   43 1
    44   17   44 1
    45   18   45 1
    46   18   46 1
    47   19   47 1
    48   19   48 1
    49   20   49 1
    50   20   50 1
    51   21   51 1
    52   21   52 1
    53   22   53 1
    54   22   54 1
    55   23   55 1
    56   23   56 1
    57   25   57 1
    58   25   58 1
    59   25   59 1
@<TRIPOS>MOLECULE
773
   74    80     0     0     0
SMALL
NO_CHARGES

@<TRIPOS>ATOM
      1 O1          3.5220   -0.2348    0.0000 OS        1 <0>         0.0000
      2 O2          5.9393    0.6519    0.0000 OS        1 <0>         0.0000
      3 O3          4.2365    1.0027    0.0000 OS        1 <0>         0.0000
      4 O4          3.5087    3.0995    0.0000 OS        1 <0>         0.0000
      5 O5          7.0808   -0.2671    0.0000 O         1 <0>         0.0000
      6 O6          2.0930    0.5902    0.0000 OH        1 <0>         0.0000
      7 O7          4.9938    3.1052    0.0000 OS        1 <0>         0.0000
      8 O8          2.0930    2.2403    0.0000 OH        1 <0>         0.0000
      9 O9          2.8457   -3.3231    0.0000 OS        1 <0>         0.0000
     10 O10         4.0435   -4.0147    0.0000 OS        1 <0>         0.0000
     11 O11         7.0944   -3.9474    0.0000 OS        1 <0>         0.0000
     12 O12         8.5234   -1.4723    0.0000 OS        1 <0>         0.0000
     13 O13         8.5234   -3.1224    0.0000 OH        1 <0>         0.0000
     14 C1          4.9509   -0.2348    0.0000 CT        1 <0>         0.0000
     15 C2          5.6655   -0.6473    0.0000 CT        1 <0>         0.0000
     16 C3          4.2365   -0.6473    0.0000 CT        1 <0>         0.0000
     17 C4          5.6655   -1.4723    0.0000 CT        1 <0>         0.0000
     18 C5          4.2365   -1.4723    0.0000 CA        1 <0>         0.0000
     19 C6          4.9509   -1.8848    0.0000 CA        1 <0>         0.0000
     20 C7          5.1235    0.5670    0.0000 CT        1 <0>         0.0000
     21 C8          6.2735   -0.0969    0.0000 C         1 <0>         0.0000
     22 C9          3.5220    0.5902    0.0000 CT        1 <0>         0.0000
     23 C10         6.3799   -1.8848    0.0000 CA        1 <0>         0.0000
     24 C11         2.8075    1.0027    0.0000 CT        1 <0>         0.0000
     25 C12         3.5220    2.2403    0.0000 CT        1 <0>         0.0000
     26 C13         2.8075    1.8277    0.0000 CT        1 <0>         0.0000
     27 C14         4.2365    1.8277    0.0000 CT        1 <0>         0.0000
     28 C15         3.4857   -1.8905    0.0000 CA        1 <0>         0.0000
     29 C16         4.9642   -2.7441    0.0000 CA        1 <0>         0.0000
     30 C17         4.9872    2.2459    0.0000 CT        1 <0>         0.0000
     31 C18         3.4791   -2.7499    0.0000 CA        1 <0>         0.0000
     32 C19         4.2234   -3.1795    0.0000 CA        1 <0>         0.0000
     33 C20         7.0944   -1.4723    0.0000 CA        1 <0>         0.0000
     34 C21         6.3799   -2.7099    0.0000 CA        1 <0>         0.0000
     35 C22         4.2497    3.5349    0.0000 CT        1 <0>         0.0000
     36 C23         7.0944   -3.1224    0.0000 CA        1 <0>         0.0000
     37 C24         7.8089   -1.8848    0.0000 CA        1 <0>         0.0000
     38 C25         3.1939   -4.1032    0.0000 CT        1 <0>         0.0000
     39 C26         7.8089   -2.7099    0.0000 CA        1 <0>         0.0000
     40 C27         4.2465    4.3599    0.0000 CT        1 <0>         0.0000
     41 C28         6.3799   -4.3599    0.0000 CT        1 <0>         0.0000
     42 C29         9.2379   -1.8848    0.0000 CT        1 <0>         0.0000
     43 H1          4.4175    0.1538    0.0000 HC        1 <0>         0.0000
     44 H2          6.2687   -0.9150    0.0000 HC        1 <0>         0.0000
     45 H3          2.9479    2.5658    0.0000 H1        1 <0>         0.0000
     46 H4          4.8055    1.4933    0.0000 H1        1 <0>         0.0000
     47 H5          2.0930    0.5902    0.0000 HO        1 <0>         0.0000
     48 H6          2.0930    2.2403    0.0000 HO        1 <0>         0.0000
     49 H7          8.5234   -3.1224    0.0000 HO        1 <0>         0.0000
     50 H8          4.2365   -0.6473    0.0000 H1        1 <0>         0.0000
     51 H9          5.6655   -1.4723    0.0000 HC        1 <0>         0.0000
     52 H10         5.1235    0.5670    0.0000 H1        1 <0>         0.0000
     53 H11         5.1235    0.5670    0.0000 H1        1 <0>         0.0000
     54 H12         3.5220    0.5902    0.0000 H2        1 <0>         0.0000
     55 H13         2.8075    1.0027    0.0000 H1        1 <0>         0.0000
     56 H14         2.8075    1.8277    0.0000 H1        1 <0>         0.0000
     57 H15         3.4857   -1.8905    0.0000 HA        1 <0>         0.0000
     58 H16         4.9642   -2.7441    0.0000 HA        1 <0>         0.0000
     59 H17         4.9872    2.2459    0.0000 H1        1 <0>         0.0000
     60 H18         4.9872    2.2459    0.0000 H1        1 <0>         0.0000
     61 H19         7.0944   -1.4723    0.0000 HA        1 <0>         0.0000
     62 H20         6.3799   -2.7099    0.0000 HA        1 <0>         0.0000
     63 H21         4.2497    3.5349    0.0000 H2        1 <0>         0.0000
     64 H22         3.1939   -4.1032    0.0000 H2        1 <0>         0.0000
     65 H23         3.1939   -4.1032    0.0000 H2        1 <0>         0.0000
     66 H24         4.2465    4.3599    0.0000 HC        1 <0>         0.0000
     67 H25         4.2465    4.3599    0.0000 HC        1 <0>         0.0000
     68 H26         4.2465    4.3599    0.0000 HC        1 <0>         0.0000
     69 H27         6.3799   -4.3599    0.0000 H1        1 <0>         0.0000
     70 H28         6.3799   -4.3599    0.0000 H1        1 <0>         0.0000
     71 H29         6.3799   -4.3599    0.0000 H1        1 <0>         0.0000
     72 H30         9.2379   -1.8848    0.0000 H1        1 <0>         0.0000
     73 H31         9.2379   -1.8848    0.0000 H1        1 <0>         0.0000
     74 H32         9.2379   -1.8848    0.0000 H1        1 <0>         0.0000
@<TRIPOS>BOND
     1    1   16 1
     2    1   22 1
     3    2   20 1
     4    2   21 1
     5    3   22 1
     6    3   27 1
     7    4   25 1
     8    4   35 1
     9    5   21 2
    10    6   24 1
    11    7   30 1
    12    7   35 1
    13    8   26 1
    14    9   31 1
    15    9   38 1
    16   10   32 1
    17   10   38 1
    18   11   36 1
    19   11   41 1
    20   12   37 1
    21   12   42 1
    22   13   39 1
    23   14   15 1
    24   14   16 1
    25   14   20 1
    26   14   43 1
    27   15   17 1
    28   15   21 1
    29   15   44 1
    30   16   18 1
    31   17   19 1
    32   17   23 1
    33   18   19 ar
    34   18   28 ar
    35   19   29 ar
    36   22   24 1
    37   23   33 ar
    38   23   34 ar
    39   24   26 1
    40   25   26 1
    41   25   27 1
    42   25   45 1
    43   27   30 1
    44   27   46 1
    45   28   31 ar
    46   29   32 ar
    47   31   32 ar
    48   33   37 ar
    49   34   36 ar
    50   35   40 1
    51   36   39 ar
    52   37   39 ar
    53    6   47 1
    54    8   48 1
    55   13   49 1
    56   16   50 1
    57   17   51 1
    58   20   52 1
    59   20   53 1
    60   22   54 1
    61   24   55 1
    62   26   56 1
    63   28   57 1
    64   29   58 1
    65   30   59 1
    66   30   60 1
    67   33   61 1
    68   34   62 1
    69   35   63 1
    70   38   64 1
    71   38   65 1
    72   40   66 1
    73   40   67 1
    74   40   68 1
    75   41   69 1
    76   41   70 1
    77   41   71 1
    78   42   72 1
    79   42   73 1
    80   42   74 1
@<TRIPOS>MOLECULE
783
   44    47     0     0     0
SMALL
NO_CHARGES

@<TRIPOS>ATOM
      1 O1          7.5775    1.7429    0.0000 OH        1 <0>         0.0000
      2 O2          2.0917   -1.8105    0.0000 OH        1 <0>         0.0000
      3 C1          6.5406    0.7074    0.0000 CT        1 <0>         0.0000
      4 C2          6.5406   -0.1176    0.0000 CT        1 <0>         0.0000
      5 C3          5.8262   -0.5300    0.0000 CT        1 <0>         0.0000
      6 C4          5.1119   -0.1176    0.0000 CT        1 <0>         0.0000
      7 C5          7.3211    0.9588    0.0000 CT        1 <0>         0.0000
      8 C6          5.8262    1.1199    0.0000 CT        1 <0>         0.0000
      9 C7          7.3211   -0.3689    0.0000 CT        1 <0>         0.0000
     10 C8          5.1119    0.7074    0.0000 CT        1 <0>         0.0000
     11 C9          7.8026    0.2949    0.0000 CT        1 <0>         0.0000
     12 C10         5.8395   -1.3891    0.0000 CT        1 <0>         0.0000
     13 C11         6.5406    1.5323    0.0000 CT        1 <0>         0.0000
     14 C12         4.3612   -0.5356    0.0000 CA        1 <0>         0.0000
     15 C13         5.0987   -1.8245    0.0000 CT        1 <0>         0.0000
     16 C14         4.3545   -1.3948    0.0000 CA        1 <0>         0.0000
     17 C15         3.5966   -0.0703    0.0000 CA        1 <0>         0.0000
     18 C16         3.5829   -1.8483    0.0000 CA        1 <0>         0.0000
     19 C17         2.8147   -0.5058    0.0000 CA        1 <0>         0.0000
     20 C18         2.8078   -1.4008    0.0000 CA        1 <0>         0.0000
     21 H1          6.6105   -0.7738    0.0000 HC        1 <0>         0.0000
     22 H2          6.4003   -0.8555    0.0000 HC        1 <0>         0.0000
     23 H3          5.6833    0.2124    0.0000 HC        1 <0>         0.0000
     24 H4          7.5775    1.7429    0.0000 HO        1 <0>         0.0000
     25 H5          2.0917   -1.8105    0.0000 HO        1 <0>         0.0000
     26 H6          7.3211    0.9588    0.0000 H1        1 <0>         0.0000
     27 H7          5.8262    1.1199    0.0000 HC        1 <0>         0.0000
     28 H8          5.8262    1.1199    0.0000 HC        1 <0>         0.0000
     29 H9          7.3211   -0.3689    0.0000 HC        1 <0>         0.0000
     30 H10         7.3211   -0.3689    0.0000 HC        1 <0>         0.0000
     31 H11         5.1119    0.7074    0.0000 HC        1 <0>         0.0000
     32 H12         5.1119    0.7074    0.0000 HC        1 <0>         0.0000
     33 H13         7.8026    0.2949    0.0000 HC        1 <0>         0.0000
     34 H14         7.8026    0.2949    0.0000 HC        1 <0>         0.0000
     35 H15         5.8395   -1.3891    0.0000 HC        1 <0>         0.0000
     36 H16         5.8395   -1.3891    0.0000 HC        1 <0>         0.0000
     37 H17         6.5406    1.5323    0.0000 HC        1 <0>         0.0000
     38 H18         6.5406    1.5323    0.0000 HC        1 <0>         0.0000
     39 H19         6.5406    1.5323    0.0000 HC        1 <0>         0.0000
     40 H20         5.0987   -1.8245    0.0000 HC        1 <0>         0.0000
     41 H21         5.0987   -1.8245    0.0000 HC        1 <0>         0.0000
     42 H22         3.5966   -0.0703    0.0000 HA        1 <0>         0.0000
     43 H23         3.5829   -1.8483    0.0000 HA        1 <0>         0.0000
     44 H24         2.8147   -0.5058    0.0000 HA        1 <0>         0.0000
@<TRIPOS>BOND
     1    1    7 1
     2    2   20 1
     3    3    4 1
     4    3    7 1
     5    3    8 1
     6    3   13 1
     7    4    5 1
     8    4    9 1
     9    4   21 1
    10    5    6 1
    11    5   12 1
    12    5   22 1
    13    6   10 1
    14    6   14 1
    15    6   23 1
    16    7   11 1
    17    8   10 1
    18    9   11 1
    19   12   15 1
    20   14   16 ar
    21   14   17 ar
    22   15   16 1
    23   16   18 ar
    24   17   19 ar
    25   18   20 ar
    26   19   20 ar
    27    1   24 1
    28    2   25 1
    29    7   26 1
    30    8   27 1
    31    8   28 1
    32    9   29 1
    33    9   30 1
    34   10   31 1
    35   10   32 1
    36   11   33 1
    37   11   34 1
    38   12   35 1
    39   12   36 1
    40   13   37 1
    41   13   38 1
    42   13   39 1
    43   15   40 1
    44   15   41 1
    45   17   42 1
    46   18   43 1
    47   19   44 1
@<TRIPOS>MOLECULE
*****
   31    32     0     0     0
SMALL
NO_CHARGES

@<TRIPOS>ATOM
      1 C1         -1.6795    1.0313    0.0000 CA        1 <0>         0.0000
      2 C2         -2.3939    0.6188    0.0000 CA        1 <0>         0.0000
      3 C3         -2.3939   -0.2063    0.0000 CA        1 <0>         0.0000
      4 C4         -1.6795   -0.6188    0.0000 CA        1 <0>         0.0000
      5 C5         -0.9650   -0.2063    0.0000 CB        1 <0>         0.0000
      6 C6         -0.9650    0.6188    0.0000 CB        1 <0>         0.0000
      7 C7         -0.2505    1.0313    0.0000 CA        1 <0>         0.0000
      8 C8         -0.2505   -0.6188    0.0000 CA        1 <0>         0.0000
      9 C9          0.4639   -0.2063    0.0000 CA        1 <0>         0.0000
     10 C10         0.4639    0.6188    0.0000 CA        1 <0>         0.0000
     11 C11         1.1784    1.0313    0.0000 CT        1 <0>         0.0000
     12 C12         1.8929    0.6188    0.0000 C         1 <0>         0.0000
     13 O1          1.8929   -0.2062    0.0000 O         1 <0>         0.0000
     14 O2          2.6073    1.0313    0.0000 OH        1 <0>         0.0000
     15 C13         1.1784    1.8563    0.0000 CT        1 <0>         0.0000
     16 O3         -3.1084   -0.6188    0.0000 OS        1 <0>         0.0000
     17 C14        -3.1084   -1.4438    0.0000 CT        1 <0>         0.0000
     18 H1         -1.6795    1.0313    0.0000 HA        1 <0>         0.0000
     19 H2         -2.3939    0.6188    0.0000 HA        1 <0>         0.0000
     20 H3         -1.6795   -0.6188    0.0000 HA        1 <0>         0.0000
     21 H4         -0.2505    1.0313    0.0000 HA        1 <0>         0.0000
     22 H5         -0.2505   -0.6188    0.0000 HA        1 <0>         0.0000
     23 H6          0.4639   -0.2063    0.0000 HA        1 <0>         0.0000
     24 H7          1.1784    1.0313    0.0000 HC        1 <0>         0.0000
     25 H8          2.6073    1.0313    0.0000 HO        1 <0>         0.0000
     26 H9          1.1784    1.8563    0.0000 HC        1 <0>         0.0000
     27 H10         1.1784    1.8563    0.0000 HC        1 <0>         0.0000
     28 H11         1.1784    1.8563    0.0000 HC        1 <0>         0.0000
     29 H12        -3.1084   -1.4438    0.0000 H1        1 <0>         0.0000
     30 H13        -3.1084   -1.4438    0.0000 H1        1 <0>         0.0000
     31 H14        -3.1084   -1.4438    0.0000 H1        1 <0>         0.0000
@<TRIPOS>BOND
     1    1    2 ar
     2    1    6 ar
     3    2    3 ar
     4    3    4 ar
     5    4    5 ar
     6    6    7 ar
     7    5    6 ar
     8    5    8 ar
     9    7   10 ar
    10    8    9 ar
    11    9   10 ar
    12   10   11 1
    13   11   12 1
    14   12   13 2
    15   12   14 1
    16   11   15 1
    17    3   16 1
    18   16   17 1
    19    1   18 1
    20    2   19 1
    21    4   20 1
    22    7   21 1
    23    8   22 1
    24    9   23 1
    25   11   24 1
    26   14   25 1
    27   15   26 1
    28   15   27 1
    29   15   28 1
    30   17   29 1
    31   17   30 1
    32   17   31 1
@<TRIPOS>MOLECULE
818
   31    31     0     0     0
SMALL
NO_CHARGES

@<TRIPOS>ATOM
      1 O1          3.7935    1.1096    0.0000 OH        1 <0>         0.0000
      2 C1          5.2224    0.2846    0.0000 CT        1 <0>         0.0000
      3 C2          2.3645    0.2846    0.0000 CT        1 <0>         0.0000
      4 C3          4.5080   -0.1279    0.0000 CA        1 <0>         0.0000
      5 C4          3.0791   -0.1279    0.0000 CA        1 <0>         0.0000
      6 C5          3.7935    0.2846    0.0000 CA        1 <0>         0.0000
      7 C6          4.5080   -0.9529    0.0000 CA        1 <0>         0.0000
      8 C7          3.0791   -0.9529    0.0000 CA        1 <0>         0.0000
      9 C8          5.9370   -0.1279    0.0000 CT        1 <0>         0.0000
     10 C9          5.2224    1.1096    0.0000 CT        1 <0>         0.0000
     11 C10         1.6500   -0.1279    0.0000 CT        1 <0>         0.0000
     12 C11         2.3645    1.1096    0.0000 CT        1 <0>         0.0000
     13 C12         3.7935   -1.3654    0.0000 CA        1 <0>         0.0000
     14 H1          3.7935    1.1096    0.0000 HO        1 <0>         0.0000
     15 H2          5.2224    0.2846    0.0000 HC        1 <0>         0.0000
     16 H3          2.3645    0.2846    0.0000 HC        1 <0>         0.0000
     17 H4          4.5080   -0.9529    0.0000 HA        1 <0>         0.0000
     18 H5          3.0791   -0.9529    0.0000 HA        1 <0>         0.0000
     19 H6          5.9370   -0.1279    0.0000 HC        1 <0>         0.0000
     20 H7          5.9370   -0.1279    0.0000 HC        1 <0>         0.0000
     21 H8          5.9370   -0.1279    0.0000 HC        1 <0>         0.0000
     22 H9          5.2224    1.1096    0.0000 HC        1 <0>         0.0000
     23 H10         5.2224    1.1096    0.0000 HC        1 <0>         0.0000
     24 H11         5.2224    1.1096    0.0000 HC        1 <0>         0.0000
     25 H12         1.6500   -0.1279    0.0000 HC        1 <0>         0.0000
     26 H13         1.6500   -0.1279    0.0000 HC        1 <0>         0.0000
     27 H14         1.6500   -0.1279    0.0000 HC        1 <0>         0.0000
     28 H15         2.3645    1.1096    0.0000 HC        1 <0>         0.0000
     29 H16         2.3645    1.1096    0.0000 HC        1 <0>         0.0000
     30 H17         2.3645    1.1096    0.0000 HC        1 <0>         0.0000
     31 H18         3.7935   -1.3654    0.0000 HA        1 <0>         0.0000
@<TRIPOS>BOND
     1    1    6 1
     2    2    4 1
     3    2    9 1
     4    2   10 1
     5    3    5 1
     6    3   11 1
     7    3   12 1
     8    4    6 ar
     9    4    7 ar
    10    5    6 ar
    11    5    8 ar
    12    7   13 ar
    13    8   13 ar
    14    1   14 1
    15    2   15 1
    16    3   16 1
    17    7   17 1
    18    8   18 1
    19    9   19 1
    20    9   20 1
    21    9   21 1
    22   10   22 1
    23   10   23 1
    24   10   24 1
    25   11   25 1
    26   11   26 1
    27   11   27 1
    28   12   28 1
    29   12   29 1
    30   12   30 1
    31   13   31 1
@<TRIPOS>MOLECULE
823
   60    63     0     0     0
SMALL
NO_CHARGES

@<TRIPOS>ATOM
      1 O1          8.9774    0.8591    0.0000 OS        1 <0>         0.0000
      2 O2          3.0790   -2.3944    0.0000 OS        1 <0>         0.0000
      3 O3          9.8152   -0.2985    0.0000 O         1 <0>         0.0000
      4 O4          2.3693   -1.1541    0.0000 O         1 <0>         0.0000
      5 C1          7.5284    0.1238    0.0000 CT        1 <0>         0.0000
      6 C2          7.5284   -0.7012    0.0000 CT        1 <0>         0.0000
      7 C3          6.8139   -1.1137    0.0000 CT        1 <0>         0.0000
      8 C4          6.0994   -0.7012    0.0000 CT        1 <0>         0.0000
      9 C5          8.3090    0.3753    0.0000 CT        1 <0>         0.0000
     10 C6          6.8139    0.5363    0.0000 CT        1 <0>         0.0000
     11 C7          8.3090   -0.9526    0.0000 CT        1 <0>         0.0000
     12 C8          6.0994    0.1238    0.0000 CT        1 <0>         0.0000
     13 C9          5.3487   -1.1193    0.0000 CT        1 <0>         0.0000
     14 C10         8.7906   -0.2887    0.0000 CT        1 <0>         0.0000
     15 C11         6.8272   -1.9729    0.0000 CT        1 <0>         0.0000
     16 C12         7.5284    0.9489    0.0000 CT        1 <0>         0.0000
     17 C13         5.3420   -1.9786    0.0000 CM        1 <0>         0.0000
     18 C14         6.0862   -2.4083    0.0000 CT        1 <0>         0.0000
     19 C15         4.5840   -0.6539    0.0000 CT        1 <0>         0.0000
     20 C16         3.8019   -1.0895    0.0000 CT        1 <0>         0.0000
     21 C17         8.0555    1.1604    0.0000 C2        1 <0>         0.0000
     22 C18         4.5703   -2.4322    0.0000 CM        1 <0>         0.0000
     23 C19         3.7951   -1.9846    0.0000 CT        1 <0>         0.0000
     24 C20         9.7304    0.5222    0.0000 C         1 <0>         0.0000
     25 C21         7.8019    1.9454    0.0000 C2        1 <0>         0.0000
     26 C22        10.3987    1.0059    0.0000 CT        1 <0>         0.0000
     27 C23         2.3661   -1.9791    0.0000 C         1 <0>         0.0000
     28 C24         1.6500   -2.3888    0.0000 CT        1 <0>         0.0000
     29 H1          7.5983   -1.3575    0.0000 HC        1 <0>         0.0000
     30 H2          7.3880   -1.4392    0.0000 HC        1 <0>         0.0000
     31 H3          6.6710   -0.3712    0.0000 HC        1 <0>         0.0000
     32 H4          5.3614   -0.4595    0.0000 HC        1 <0>         0.0000
     33 H5          6.8139    0.5363    0.0000 HC        1 <0>         0.0000
     34 H6          6.8139    0.5363    0.0000 HC        1 <0>         0.0000
     35 H7          8.3090   -0.9526    0.0000 HC        1 <0>         0.0000
     36 H8          8.3090   -0.9526    0.0000 HC        1 <0>         0.0000
     37 H9          6.0994    0.1238    0.0000 HC        1 <0>         0.0000
     38 H10         6.0994    0.1238    0.0000 HC        1 <0>         0.0000
     39 H11         8.7906   -0.2887    0.0000 HC        1 <0>         0.0000
     40 H12         8.7906   -0.2887    0.0000 HC        1 <0>         0.0000
     41 H13         6.8272   -1.9729    0.0000 HC        1 <0>         0.0000
     42 H14         6.8272   -1.9729    0.0000 HC        1 <0>         0.0000
     43 H15         7.5284    0.9489    0.0000 HC        1 <0>         0.0000
     44 H16         7.5284    0.9489    0.0000 HC        1 <0>         0.0000
     45 H17         7.5284    0.9489    0.0000 HC        1 <0>         0.0000
     46 H18         6.0862   -2.4083    0.0000 HC        1 <0>         0.0000
     47 H19         6.0862   -2.4083    0.0000 HC        1 <0>         0.0000
     48 H20         4.5840   -0.6539    0.0000 HC        1 <0>         0.0000
     49 H21         4.5840   -0.6539    0.0000 HC        1 <0>         0.0000
     50 H22         3.8019   -1.0895    0.0000 HC        1 <0>         0.0000
     51 H23         3.8019   -1.0895    0.0000 HC        1 <0>         0.0000
     52 H24         4.5703   -2.4322    0.0000 HA        1 <0>         0.0000
     53 H25         3.7951   -1.9846    0.0000 H1        1 <0>         0.0000
     54 H26         7.8019    1.9454    0.0000 HC        1 <0>         0.0000
     55 H27        10.3987    1.0059    0.0000 HC        1 <0>         0.0000
     56 H28        10.3987    1.0059    0.0000 HC        1 <0>         0.0000
     57 H29        10.3987    1.0059    0.0000 HC        1 <0>         0.0000
     58 H30         1.6500   -2.3888    0.0000 HC        1 <0>         0.0000
     59 H31         1.6500   -2.3888    0.0000 HC        1 <0>         0.0000
     60 H32         1.6500   -2.3888    0.0000 HC        1 <0>         0.0000
@<TRIPOS>BOND
     1    1    9 1
     2    1   24 1
     3    2   23 1
     4    2   27 1
     5    3   24 2
     6    4   27 2
     7    5    6 1
     8    5    9 1
     9    5   10 1
    10    5   16 1
    11    6    7 1
    12    6   11 1
    13    6   29 1
    14    7    8 1
    15    7   15 1
    16    7   30 1
    17    8   12 1
    18    8   13 1
    19    8   31 1
    20    9   14 1
    21    9   21 1
    22   10   12 1
    23   11   14 1
    24   13   17 1
    25   13   19 1
    26   13   32 1
    27   15   18 1
    28   17   18 1
    29   17   22 2
    30   19   20 1
    31   20   23 1
    32   21   25 3
    33   22   23 1
    34   24   26 1
    35   27   28 1
    36   10   33 1
    37   10   34 1
    38   11   35 1
    39   11   36 1
    40   12   37 1
    41   12   38 1
    42   14   39 1
    43   14   40 1
    44   15   41 1
    45   15   42 1
    46   16   43 1
    47   16   44 1
    48   16   45 1
    49   18   46 1
    50   18   47 1
    51   19   48 1
    52   19   49 1
    53   20   50 1
    54   20   51 1
    55   22   52 1
    56   23   53 1
    57   25   54 1
    58   26   55 1
    59   26   56 1
    60   26   57 1
    61   28   58 1
    62   28   59 1
    63   28   60 1
@<TRIPOS>MOLECULE
menthol
   31    31     0     0     0
SMALL
NO_CHARGES

@<TRIPOS>ATOM
      1 C1          0.0000    2.4750    0.0000 CT        1 <0>         0.0000
      2 C2          0.7145    2.0625    0.0000 CT        1 <0>         0.0000
      3 C3          1.4289    2.4750    0.0000 CT        1 <0>         0.0000
      4 C4          0.7145    1.2375    0.0000 CT        1 <0>         0.0000
      5 C5          1.4289    0.8250    0.0000 CT        1 <0>         0.0000
      6 C6          1.4289    0.0000    0.0000 CT        1 <0>         0.0000
      7 C7          0.7145   -0.4125    0.0000 CT        1 <0>         0.0000
      8 C8          0.7145   -1.2375    0.0000 CT        1 <0>         0.0000
      9 C9          0.0000    0.0000    0.0000 CT        1 <0>         0.0000
     10 C10         0.0000    0.8250    0.0000 CT        1 <0>         0.0000
     11 O1         -0.7145    1.2375    0.0000 OH        1 <0>         0.0000
     12 H1          0.0000    2.4750    0.0000 HC        1 <0>         0.0000
     13 H2          0.0000    2.4750    0.0000 HC        1 <0>         0.0000
     14 H3          0.0000    2.4750    0.0000 HC        1 <0>         0.0000
     15 H4          0.7145    2.0625    0.0000 HC        1 <0>         0.0000
     16 H5          1.4289    2.4750    0.0000 HC        1 <0>         0.0000
     17 H6          1.4289    2.4750    0.0000 HC        1 <0>         0.0000
     18 H7          1.4289    2.4750    0.0000 HC        1 <0>         0.0000
     19 H8          0.7145    1.2375    0.0000 HC        1 <0>         0.0000
     20 H9          1.4289    0.8250    0.0000 HC        1 <0>         0.0000
     21 H10         1.4289    0.8250    0.0000 HC        1 <0>         0.0000
     22 H11         1.4289    0.0000    0.0000 HC        1 <0>         0.0000
     23 H12         1.4289    0.0000    0.0000 HC        1 <0>         0.0000
     24 H13         0.7145   -0.4125    0.0000 HC        1 <0>         0.0000
     25 H14         0.7145   -1.2375    0.0000 HC        1 <0>         0.0000
     26 H15         0.7145   -1.2375    0.0000 HC        1 <0>         0.0000
     27 H16         0.7145   -1.2375    0.0000 HC        1 <0>         0.0000
     28 H17         0.0000    0.0000    0.0000 HC        1 <0>         0.0000
     29 H18         0.0000    0.0000    0.0000 HC        1 <0>         0.0000
     30 H19         0.0000    0.8250    0.0000 H1        1 <0>         0.0000
     31 H20        -0.7145    1.2375    0.0000 HO        1 <0>         0.0000
@<TRIPOS>BOND
     1    1    2 1
     2    2    3 1
     3    2    4 1
     4    4    5 1
     5    5    6 1
     6    6    7 1
     7    7    8 1
     8    7    9 1
     9    9   10 1
    10    4   10 1
    11   10   11 1
    12    1   12 1
    13    1   13 1
    14    1   14 1
    15    2   15 1
    16    3   16 1
    17    3   17 1
    18    3   18 1
    19    4   19 1
    20    5   20 1
    21    5   21 1
    22    6   22 1
    23    6   23 1
    24    7   24 1
    25    8   25 1
    26    8   26 1
    27    8   27 1
    28    9   28 1
    29    9   29 1
    30   10   30 1
    31   11   31 1
@<TRIPOS>MOLECULE
*****
   54    57     0     0     0
SMALL
NO_CHARGES

@<TRIPOS>ATOM
      1 C1          1.8036   -0.1138    0.0000 CT        1 <0>         0.0000
      2 C2          0.3045   -1.0964    0.0000 CT        1 <0>         0.0000
      3 C3          1.8036    1.2211    0.0000 CT        1 <0>         0.0000
      4 C4          0.3045    1.3786    0.0000 CT        1 <0>         0.0000
      5 C5          2.2885    0.5536    0.0000 CT        1 <0>         0.0000
      6 C6         -1.1245   -0.2714    0.0000 CT        1 <0>         0.0000
      7 C7         -0.4100    0.9661    0.0000 CT        1 <0>         0.0000
      8 C8         -0.4100   -1.5089    0.0000 CT        1 <0>         0.0000
      9 C9         -1.1245   -1.0964    0.0000 CT        1 <0>         0.0000
     10 C10        -1.8390    0.1411    0.0000 CT        1 <0>         0.0000
     11 C11        -1.8390   -1.5089    0.0000 CT        1 <0>         0.0000
     12 C12        -2.5534   -0.2714    0.0000 CT        1 <0>         0.0000
     13 C13         0.3045   -0.2714    0.0000 CT        1 <0>         0.0000
     14 H1          0.3045    0.5536    0.0000 HC        1 <0>         0.0000
     15 C14        -0.4100    0.1411    0.0000 CT        1 <0>         0.0000
     16 H2         -0.4100   -0.6839    0.0000 HC        1 <0>         0.0000
     17 C15         1.0189    0.9661    0.0000 CT        1 <0>         0.0000
     18 C16         1.0189    1.7911    0.0000 CT        1 <0>         0.0000
     19 C17         1.0189    0.1411    0.0000 CT        1 <0>         0.0000
     20 H3          1.0189   -0.6839    0.0000 HC        1 <0>         0.0000
     21 O1         -3.2679   -1.5089    0.0000 O         1 <0>         0.0000
     22 C18        -2.5534   -1.0964    0.0000 C         1 <0>         0.0000
     23 C19        -1.1245    0.5536    0.0000 CT        1 <0>         0.0000
     24 O2          1.8036    2.0461    0.0000 OH        1 <0>         0.0000
     25 C20        -3.2679    0.1411    0.0000 CT        1 <0>         0.0000
     26 H4         -1.1245   -1.9214    0.0000 HC        1 <0>         0.0000
     27 H5          1.8036   -0.1138    0.0000 HC        1 <0>         0.0000
     28 H6          1.8036   -0.1138    0.0000 HC        1 <0>         0.0000
     29 H7          0.3045   -1.0964    0.0000 HC        1 <0>         0.0000
     30 H8          0.3045   -1.0964    0.0000 HC        1 <0>         0.0000
     31 H9          1.8036    1.2211    0.0000 H1        1 <0>         0.0000
     32 H10         0.3045    1.3786    0.0000 HC        1 <0>         0.0000
     33 H11         0.3045    1.3786    0.0000 HC        1 <0>         0.0000
     34 H12         2.2885    0.5536    0.0000 HC        1 <0>         0.0000
     35 H13         2.2885    0.5536    0.0000 HC        1 <0>         0.0000
     36 H14        -0.4100    0.9661    0.0000 HC        1 <0>         0.0000
     37 H15        -0.4100    0.9661    0.0000 HC        1 <0>         0.0000
     38 H16        -0.4100   -1.5089    0.0000 HC        1 <0>         0.0000
     39 H17        -0.4100   -1.5089    0.0000 HC        1 <0>         0.0000
     40 H18        -1.8390    0.1411    0.0000 HC        1 <0>         0.0000
     41 H19        -1.8390    0.1411    0.0000 HC        1 <0>         0.0000
     42 H20        -1.8390   -1.5089    0.0000 HC        1 <0>         0.0000
     43 H21        -1.8390   -1.5089    0.0000 HC        1 <0>         0.0000
     44 H22        -2.5534   -0.2714    0.0000 HC        1 <0>         0.0000
     45 H23         1.0189    1.7911    0.0000 HC        1 <0>         0.0000
     46 H24         1.0189    1.7911    0.0000 HC        1 <0>         0.0000
     47 H25         1.0189    1.7911    0.0000 HC        1 <0>         0.0000
     48 H26        -1.1245    0.5536    0.0000 HC        1 <0>         0.0000
     49 H27        -1.1245    0.5536    0.0000 HC        1 <0>         0.0000
     50 H28        -1.1245    0.5536    0.0000 HC        1 <0>         0.0000
     51 H29         1.8036    2.0461    0.0000 HO        1 <0>         0.0000
     52 H30        -3.2679    0.1411    0.0000 HC        1 <0>         0.0000
     53 H31        -3.2679    0.1411    0.0000 HC        1 <0>         0.0000
     54 H32        -3.2679    0.1411    0.0000 HC        1 <0>         0.0000
@<TRIPOS>BOND
     1   13   19 1
     2   17   19 1
     3    1   19 1
     4   13   15 1
     5    2   13 1
     6    3   17 1
     7    4   17 1
     8    1    5 1
     9    6   15 1
    10    7   15 1
    11    2    8 1
    12    6    9 1
    13    6   10 1
    14    9   11 1
    15   10   12 1
    16   11   22 1
    17    3    5 1
    18    4    7 1
    19    8    9 1
    20   12   22 1
    21   13   14 1
    22   15   16 1
    23   17   18 1
    24   19   20 1
    25   21   22 2
    26    6   23 1
    27    3   24 1
    28   12   25 1
    29    9   26 1
    30    1   27 1
    31    1   28 1
    32    2   29 1
    33    2   30 1
    34    3   31 1
    35    4   32 1
    36    4   33 1
    37    5   34 1
    38    5   35 1
    39    7   36 1
    40    7   37 1
    41    8   38 1
    42    8   39 1
    43   10   40 1
    44   10   41 1
    45   11   42 1
    46   11   43 1
    47   12   44 1
    48   18   45 1
    49   18   46 1
    50   18   47 1
    51   23   48 1
    52   23   49 1
    53   23   50 1
    54   24   51 1
    55   25   52 1
    56   25   53 1
    57   25   54 1
@<TRIPOS>MOLECULE
860
   54    57     0     0     0
SMALL
NO_CHARGES

@<TRIPOS>ATOM
      1 O1          6.6263    1.5366    0.0000 OH        1 <0>         0.0000
      2 O2          3.9559    0.9126    0.0000 OH        1 <0>         0.0000
      3 O3          7.4634    2.0559    0.0000 O         1 <0>         0.0000
      4 O4          8.9696    1.3822    0.0000 OH        1 <0>         0.0000
      5 O5          1.6500   -2.0181    0.0000 O         1 <0>         0.0000
      6 C1          6.0993    0.5001    0.0000 CT        1 <0>         0.0000
      7 C2          6.0993   -0.3249    0.0000 CT        1 <0>         0.0000
      8 C3          5.3849   -0.7374    0.0000 CT        1 <0>         0.0000
      9 C4          4.6703   -0.3249    0.0000 CT        1 <0>         0.0000
     10 C5          6.8799    0.7515    0.0000 CT        1 <0>         0.0000
     11 C6          5.3849    0.9126    0.0000 CT        1 <0>         0.0000
     12 C7          6.8799   -0.5763    0.0000 CT        1 <0>         0.0000
     13 C8          4.6703    0.5001    0.0000 CT        1 <0>         0.0000
     14 C9          3.9196   -0.7431    0.0000 CT        1 <0>         0.0000
     15 C10         7.3614    0.0876    0.0000 CT        1 <0>         0.0000
     16 C11         5.3981   -1.5966    0.0000 CT        1 <0>         0.0000
     17 C12         6.0993    1.3251    0.0000 CT        1 <0>         0.0000
     18 C13         4.6572   -2.0321    0.0000 CT        1 <0>         0.0000
     19 C14         3.9130   -1.6024    0.0000 CM        1 <0>         0.0000
     20 C15         7.5482    1.2353    0.0000 C         1 <0>         0.0000
     21 C16         3.9259    0.0819    0.0000 CT        1 <0>         0.0000
     22 C17         3.1550   -0.2777    0.0000 CM        1 <0>         0.0000
     23 C18         3.1413   -2.0559    0.0000 CM        1 <0>         0.0000
     24 C19         8.3013    0.8984    0.0000 CT        1 <0>         0.0000
     25 C20         2.3729   -0.7132    0.0000 CM        1 <0>         0.0000
     26 C21         2.3660   -1.6083    0.0000 C         1 <0>         0.0000
     27 H1          6.1691   -0.9812    0.0000 HC        1 <0>         0.0000
     28 H2          5.9589   -1.0630    0.0000 HC        1 <0>         0.0000
     29 H3          5.2420    0.0051    0.0000 HC        1 <0>         0.0000
     30 H4          6.6263    1.5366    0.0000 HO        1 <0>         0.0000
     31 H5          3.9559    0.9126    0.0000 HO        1 <0>         0.0000
     32 H6          8.9696    1.3822    0.0000 HO        1 <0>         0.0000
     33 H7          5.3849    0.9126    0.0000 HC        1 <0>         0.0000
     34 H8          5.3849    0.9126    0.0000 HC        1 <0>         0.0000
     35 H9          6.8799   -0.5763    0.0000 HC        1 <0>         0.0000
     36 H10         6.8799   -0.5763    0.0000 HC        1 <0>         0.0000
     37 H11         4.6703    0.5001    0.0000 H1        1 <0>         0.0000
     38 H12         7.3614    0.0876    0.0000 HC        1 <0>         0.0000
     39 H13         7.3614    0.0876    0.0000 HC        1 <0>         0.0000
     40 H14         5.3981   -1.5966    0.0000 HC        1 <0>         0.0000
     41 H15         5.3981   -1.5966    0.0000 HC        1 <0>         0.0000
     42 H16         6.0993    1.3251    0.0000 HC        1 <0>         0.0000
     43 H17         6.0993    1.3251    0.0000 HC        1 <0>         0.0000
     44 H18         6.0993    1.3251    0.0000 HC        1 <0>         0.0000
     45 H19         4.6572   -2.0321    0.0000 HC        1 <0>         0.0000
     46 H20         4.6572   -2.0321    0.0000 HC        1 <0>         0.0000
     47 H21         3.9259    0.0819    0.0000 HC        1 <0>         0.0000
     48 H22         3.9259    0.0819    0.0000 HC        1 <0>         0.0000
     49 H23         3.9259    0.0819    0.0000 HC        1 <0>         0.0000
     50 H24         3.1550   -0.2777    0.0000 HA        1 <0>         0.0000
     51 H25         3.1413   -2.0559    0.0000 HA        1 <0>         0.0000
     52 H26         8.3013    0.8984    0.0000 H1        1 <0>         0.0000
     53 H27         8.3013    0.8984    0.0000 H1        1 <0>         0.0000
     54 H28         2.3729   -0.7132    0.0000 HA        1 <0>         0.0000
@<TRIPOS>BOND
     1    1   10 1
     2    2   13 1
     3    3   20 2
     4    4   24 1
     5    5   26 2
     6    6    7 1
     7    6   10 1
     8    6   11 1
     9    6   17 1
    10    7    8 1
    11    7   12 1
    12    7   27 1
    13    8    9 1
    14    8   16 1
    15    8   28 1
    16    9   13 1
    17    9   14 1
    18    9   29 1
    19   10   15 1
    20   10   20 1
    21   11   13 1
    22   12   15 1
    23   14   19 1
    24   14   21 1
    25   14   22 1
    26   16   18 1
    27   18   19 1
    28   19   23 2
    29   20   24 1
    30   22   25 2
    31   23   26 1
    32   25   26 1
    33    1   30 1
    34    2   31 1
    35    4   32 1
    36   11   33 1
    37   11   34 1
    38   12   35 1
    39   12   36 1
    40   13   37 1
    41   15   38 1
    42   15   39 1
    43   16   40 1
    44   16   41 1
    45   17   42 1
    46   17   43 1
    47   17   44 1
    48   18   45 1
    49   18   46 1
    50   21   47 1
    51   21   48 1
    52   21   49 1
    53   22   50 1
    54   23   51 1
    55   24   52 1
    56   24   53 1
    57   25   54 1
@<TRIPOS>MOLECULE
874
   28    28     0     0     0
SMALL
NO_CHARGES

@<TRIPOS>ATOM
      1 O1          3.7935   -0.1279    0.0000 OS        1 <0>         0.0000
      2 O2          3.7935    1.5222    0.0000 OH        1 <0>         0.0000
      3 O3          5.2224    2.3472    0.0000 OH        1 <0>         0.0000
      4 O4          2.3645   -0.9529    0.0000 OS        1 <0>         0.0000
      5 C1          4.5080    1.1096    0.0000 CT        1 <0>         0.0000
      6 C2          4.5080    0.2846    0.0000 CT        1 <0>         0.0000
      7 C3          5.2224    1.5222    0.0000 CT        1 <0>         0.0000
      8 C4          3.7935   -0.9529    0.0000 CA        1 <0>         0.0000
      9 C5          3.0791   -1.3654    0.0000 CA        1 <0>         0.0000
     10 C6          4.5080   -1.3654    0.0000 CA        1 <0>         0.0000
     11 C7          3.0791   -2.1904    0.0000 CA        1 <0>         0.0000
     12 C8          4.5080   -2.1904    0.0000 CA        1 <0>         0.0000
     13 C9          3.7935   -2.6029    0.0000 CA        1 <0>         0.0000
     14 C10         1.6500   -1.3654    0.0000 CT        1 <0>         0.0000
     15 H1          3.7935    1.5222    0.0000 HO        1 <0>         0.0000
     16 H2          5.2224    2.3472    0.0000 HO        1 <0>         0.0000
     17 H3          4.5080    1.1096    0.0000 H1        1 <0>         0.0000
     18 H4          4.5080    0.2846    0.0000 H1        1 <0>         0.0000
     19 H5          4.5080    0.2846    0.0000 H1        1 <0>         0.0000
     20 H6          5.2224    1.5222    0.0000 H1        1 <0>         0.0000
     21 H7          5.2224    1.5222    0.0000 H1        1 <0>         0.0000
     22 H8          4.5080   -1.3654    0.0000 HA        1 <0>         0.0000
     23 H9          3.0791   -2.1904    0.0000 HA        1 <0>         0.0000
     24 H10         4.5080   -2.1904    0.0000 HA        1 <0>         0.0000
     25 H11         3.7935   -2.6029    0.0000 HA        1 <0>         0.0000
     26 H12         1.6500   -1.3654    0.0000 H1        1 <0>         0.0000
     27 H13         1.6500   -1.3654    0.0000 H1        1 <0>         0.0000
     28 H14         1.6500   -1.3654    0.0000 H1        1 <0>         0.0000
@<TRIPOS>BOND
     1    1    6 1
     2    1    8 1
     3    2    5 1
     4    3    7 1
     5    4    9 1
     6    4   14 1
     7    5    6 1
     8    5    7 1
     9    8    9 ar
    10    8   10 ar
    11    9   11 ar
    12   10   12 ar
    13   11   13 ar
    14   12   13 ar
    15    2   15 1
    16    3   16 1
    17    5   17 1
    18    6   18 1
    19    6   19 1
    20    7   20 1
    21    7   21 1
    22   10   22 1
    23   11   23 1
    24   12   24 1
    25   13   25 1
    26   14   26 1
    27   14   27 1
    28   14   28 1
@<TRIPOS>MOLECULE
*****
   38    39     0     0     0
SMALL
NO_CHARGES

@<TRIPOS>ATOM
      1 C1         -2.4455   -0.9723    0.0000 CA        1 <0>         0.0000
      2 C2         -3.1600   -1.3848    0.0000 CA        1 <0>         0.0000
      3 C3         -3.1600   -2.2098    0.0000 CA        1 <0>         0.0000
      4 C4         -2.4455   -2.6223    0.0000 CA        1 <0>         0.0000
      5 C5         -1.7311   -2.2098    0.0000 CA        1 <0>         0.0000
      6 C6         -1.7311   -1.3848    0.0000 CA        1 <0>         0.0000
      7 O1         -3.8745   -2.6223    0.0000 OH        1 <0>         0.0000
      8 C7         -1.0166   -0.9723    0.0000 CM        1 <0>         0.0000
      9 C8         -0.3021   -1.3848    0.0000 CM        1 <0>         0.0000
     10 C9          0.4123   -0.9723    0.0000 CA        1 <0>         0.0000
     11 C10        -1.0166   -0.1473    0.0000 CM        1 <0>         0.0000
     12 C11        -0.3021   -2.2098    0.0000 CM        1 <0>         0.0000
     13 C12         1.1268    0.2652    0.0000 CA        1 <0>         0.0000
     14 C13         0.4123   -0.1473    0.0000 CA        1 <0>         0.0000
     15 C14         1.1268   -1.3848    0.0000 CA        1 <0>         0.0000
     16 C15         1.8413   -0.9723    0.0000 CA        1 <0>         0.0000
     17 C16         1.8413   -0.1473    0.0000 CA        1 <0>         0.0000
     18 C17        -1.7311    0.2652    0.0000 CT        1 <0>         0.0000
     19 C18         0.4123   -2.6223    0.0000 CT        1 <0>         0.0000
     20 O2          2.5558    0.2652    0.0000 OH        1 <0>         0.0000
     21 H1         -2.4455   -0.9723    0.0000 HA        1 <0>         0.0000
     22 H2         -3.1600   -1.3848    0.0000 HA        1 <0>         0.0000
     23 H3         -2.4455   -2.6223    0.0000 HA        1 <0>         0.0000
     24 H4         -1.7311   -2.2098    0.0000 HA        1 <0>         0.0000
     25 H5         -3.8745   -2.6223    0.0000 HO        1 <0>         0.0000
     26 H6         -1.0166   -0.1473    0.0000 HA        1 <0>         0.0000
     27 H7         -0.3021   -2.2098    0.0000 HA        1 <0>         0.0000
     28 H8          1.1268    0.2652    0.0000 HA        1 <0>         0.0000
     29 H9          0.4123   -0.1473    0.0000 HA        1 <0>         0.0000
     30 H10         1.1268   -1.3848    0.0000 HA        1 <0>         0.0000
     31 H11         1.8413   -0.9723    0.0000 HA        1 <0>         0.0000
     32 H12        -1.7311    0.2652    0.0000 HC        1 <0>         0.0000
     33 H13        -1.7311    0.2652    0.0000 HC        1 <0>         0.0000
     34 H14        -1.7311    0.2652    0.0000 HC        1 <0>         0.0000
     35 H15         0.4123   -2.6223    0.0000 HC        1 <0>         0.0000
     36 H16         0.4123   -2.6223    0.0000 HC        1 <0>         0.0000
     37 H17         0.4123   -2.6223    0.0000 HC        1 <0>         0.0000
     38 H18         2.5558    0.2652    0.0000 HO        1 <0>         0.0000
@<TRIPOS>BOND
     1    1    2 ar
     2    1    6 ar
     3    2    3 ar
     4    3    4 ar
     5    4    5 ar
     6    5    6 ar
     7    3    7 1
     8    6    8 1
     9    8    9 1
    10    9   10 1
    11    8   11 2
    12    9   12 2
    13   10   14 ar
    14   10   15 ar
    15   13   14 ar
    16   13   17 ar
    17   15   16 ar
    18   16   17 ar
    19   11   18 1
    20   12   19 1
    21   17   20 1
    22    1   21 1
    23    2   22 1
    24    4   23 1
    25    5   24 1
    26    7   25 1
    27   11   26 1
    28   12   27 1
    29   13   28 1
    30   14   29 1
    31   15   30 1
    32   16   31 1
    33   18   32 1
    34   18   33 1
    35   18   34 1
    36   19   35 1
    37   19   36 1
    38   19   37 1
    39   20   38 1
@<TRIPOS>MOLECULE
894
   46    49     0     0     0
SMALL
NO_CHARGES

@<TRIPOS>ATOM
      1 O1          2.3513   -2.2614    0.0000 OS        1 <0>         0.0000
      2 O2          3.0595   -3.4715    0.0000 O         1 <0>         0.0000
      3 O3          2.3219    3.4715    0.0000 O         1 <0>         0.0000
      4 C1          3.0499   -0.2485    0.0000 CT        1 <0>         0.0000
      5 C2          2.3640    0.1476    0.0000 CT        1 <0>         0.0000
      6 C3          3.0499   -1.0405    0.0000 CT        1 <0>         0.0000
      7 C4          2.3640   -1.4365    0.0000 CT        1 <0>         0.0000
      8 C5          2.3513    0.9725    0.0000 CT        1 <0>         0.0000
      9 C6          1.6781   -0.2485    0.0000 CT        1 <0>         0.0000
     10 C7          1.6781   -1.0405    0.0000 CT        1 <0>         0.0000
     11 C8          3.7706    0.1529    0.0000 CT        1 <0>         0.0000
     12 C9          3.7706   -1.4420    0.0000 CT        1 <0>         0.0000
     13 C10         3.0626    1.3904    0.0000 CM        1 <0>         0.0000
     14 C11         3.7771    0.9780    0.0000 CT        1 <0>         0.0000
     15 C12         1.6781   -1.8326    0.0000 CT        1 <0>         0.0000
     16 C13         1.6684    0.5712    0.0000 CT        1 <0>         0.0000
     17 C14         1.5973    1.3848    0.0000 CM        1 <0>         0.0000
     18 C15         3.7771   -2.2670    0.0000 CT        1 <0>         0.0000
     19 C16         3.0626   -2.6795    0.0000 C         1 <0>         0.0000
     20 C17         3.0692    2.2498    0.0000 CM        1 <0>         0.0000
     21 C18         1.5841    2.2441    0.0000 CM        1 <0>         0.0000
     22 C19         2.3249    2.6795    0.0000 C         1 <0>         0.0000
     23 H1          3.5963   -0.5695    0.0000 HC        1 <0>         0.0000
     24 H2          1.8128    0.4601    0.0000 HC        1 <0>         0.0000
     25 H3          3.5963   -0.7195    0.0000 HC        1 <0>         0.0000
     26 H4          1.6781   -0.2485    0.0000 HC        1 <0>         0.0000
     27 H5          1.6781   -0.2485    0.0000 HC        1 <0>         0.0000
     28 H6          1.6781   -1.0405    0.0000 HC        1 <0>         0.0000
     29 H7          1.6781   -1.0405    0.0000 HC        1 <0>         0.0000
     30 H8          3.7706    0.1529    0.0000 HC        1 <0>         0.0000
     31 H9          3.7706    0.1529    0.0000 HC        1 <0>         0.0000
     32 H10         3.7706   -1.4420    0.0000 HC        1 <0>         0.0000
     33 H11         3.7706   -1.4420    0.0000 HC        1 <0>         0.0000
     34 H12         3.7771    0.9780    0.0000 HC        1 <0>         0.0000
     35 H13         3.7771    0.9780    0.0000 HC        1 <0>         0.0000
     36 H14         1.6781   -1.8326    0.0000 HC        1 <0>         0.0000
     37 H15         1.6781   -1.8326    0.0000 HC        1 <0>         0.0000
     38 H16         1.6781   -1.8326    0.0000 HC        1 <0>         0.0000
     39 H17         1.6684    0.5712    0.0000 HC        1 <0>         0.0000
     40 H18         1.6684    0.5712    0.0000 HC        1 <0>         0.0000
     41 H19         1.6684    0.5712    0.0000 HC        1 <0>         0.0000
     42 H20         1.5973    1.3848    0.0000 HA        1 <0>         0.0000
     43 H21         3.7771   -2.2670    0.0000 HC        1 <0>         0.0000
     44 H22         3.7771   -2.2670    0.0000 HC        1 <0>         0.0000
     45 H23         3.0692    2.2498    0.0000 HA        1 <0>         0.0000
     46 H24         1.5841    2.2441    0.0000 HA        1 <0>         0.0000
@<TRIPOS>BOND
     1    1    7 1
     2    1   19 1
     3    2   19 2
     4    3   22 2
     5    4    5 1
     6    4    6 1
     7    4   11 1
     8    4   23 1
     9    5    8 1
    10    5    9 1
    11    5   24 1
    12    6    7 1
    13    6   12 1
    14    6   25 1
    15    7   10 1
    16    7   15 1
    17    8   13 1
    18    8   16 1
    19    8   17 1
    20    9   10 1
    21   11   14 1
    22   12   18 1
    23   13   14 1
    24   13   20 2
    25   17   21 2
    26   18   19 1
    27   20   22 1
    28   21   22 1
    29    9   26 1
    30    9   27 1
    31   10   28 1
    32   10   29 1
    33   11   30 1
    34   11   31 1
    35   12   32 1
    36   12   33 1
    37   14   34 1
    38   14   35 1
    39   15   36 1
    40   15   37 1
    41   15   38 1
    42   16   39 1
    43   16   40 1
    44   16   41 1
    45   17   42 1
    46   18   43 1
    47   18   44 1
    48   20   45 1
    49   21   46 1
@<TRIPOS>MOLECULE
*****
   61    64     0     0     0
SMALL
NO_CHARGES

@<TRIPOS>ATOM
      1 C1          1.0605    0.4942    0.0000 CT        1 <0>         0.0000
      2 C2          1.0605   -0.3262    0.0000 CT        1 <0>         0.0000
      3 C3         -1.0749   -0.7197    0.0000 CT        1 <0>         0.0000
      4 C4          1.7948    0.7342    0.0000 CT        1 <0>         0.0000
      5 C5          0.3695   -0.7197    0.0000 CT        1 <0>         0.0000
      6 C6         -0.3502   -0.3262    0.0000 CT        1 <0>         0.0000
      7 C7         -1.0749   -1.5403    0.0000 CM        1 <0>         0.0000
      8 C8          0.3695    0.8925    0.0000 CT        1 <0>         0.0000
      9 C9         -0.3502    0.5087    0.0000 CT        1 <0>         0.0000
     10 C10         2.2698    0.0768    0.0000 CT        1 <0>         0.0000
     11 C11        -1.7803   -0.2974    0.0000 CM        1 <0>         0.0000
     12 C12         1.8379   -0.5471    0.0000 CT        1 <0>         0.0000
     13 C13        -1.8186   -1.9243    0.0000 CM        1 <0>         0.0000
     14 C14         0.3695   -1.5547    0.0000 CT        1 <0>         0.0000
     15 C15        -2.5097   -0.7197    0.0000 CM        1 <0>         0.0000
     16 C16         1.7948    1.5596    0.0000 C         1 <0>         0.0000
     17 C17        -2.5097   -1.5067    0.0000 C         1 <0>         0.0000
     18 C18        -0.3502   -1.9722    0.0000 CT        1 <0>         0.0000
     19 O1          1.0605    1.9626    0.0000 O         1 <0>         0.0000
     20 O2         -3.2439   -1.8714    0.0000 O         1 <0>         0.0000
     21 C19         1.0605    1.3244    0.0000 CT        1 <0>         0.0000
     22 O3         -1.0605    0.9405    0.0000 OH        1 <0>         0.0000
     23 C20        -1.0749    0.1151    0.0000 CT        1 <0>         0.0000
     24 C21         2.5289    1.1133    0.0000 CT        1 <0>         0.0000
     25 C22         3.0999    0.0863    0.0000 CT        1 <0>         0.0000
     26 C23         2.5097    1.9722    0.0000 CT        1 <0>         0.0000
     27 C24         3.2439    1.5739    0.0000 CT        1 <0>         0.0000
     28 H1          1.0605   -1.1516    0.0000 HC        1 <0>         0.0000
     29 H2          0.3695    0.1151    0.0000 HC        1 <0>         0.0000
     30 H3         -0.3502   -1.1516    0.0000 HC        1 <0>         0.0000
     31 H4          0.3695    0.8925    0.0000 HC        1 <0>         0.0000
     32 H5          0.3695    0.8925    0.0000 HC        1 <0>         0.0000
     33 H6         -0.3502    0.5087    0.0000 H1        1 <0>         0.0000
     34 H7          2.2698    0.0768    0.0000 HC        1 <0>         0.0000
     35 H8         -1.7803   -0.2974    0.0000 HA        1 <0>         0.0000
     36 H9          1.8379   -0.5471    0.0000 HC        1 <0>         0.0000
     37 H10         1.8379   -0.5471    0.0000 HC        1 <0>         0.0000
     38 H11        -1.8186   -1.9243    0.0000 HA        1 <0>         0.0000
     39 H12         0.3695   -1.5547    0.0000 HC        1 <0>         0.0000
     40 H13         0.3695   -1.5547    0.0000 HC        1 <0>         0.0000
     41 H14        -2.5097   -0.7197    0.0000 HA        1 <0>         0.0000
     42 H15        -0.3502   -1.9722    0.0000 HC        1 <0>         0.0000
     43 H16        -0.3502   -1.9722    0.0000 HC        1 <0>         0.0000
     44 H17         1.0605    1.3244    0.0000 HC        1 <0>         0.0000
     45 H18         1.0605    1.3244    0.0000 HC        1 <0>         0.0000
     46 H19         1.0605    1.3244    0.0000 HC        1 <0>         0.0000
     47 H20        -1.0605    0.9405    0.0000 HO        1 <0>         0.0000
     48 H21        -1.0749    0.1151    0.0000 HC        1 <0>         0.0000
     49 H22        -1.0749    0.1151    0.0000 HC        1 <0>         0.0000
     50 H23        -1.0749    0.1151    0.0000 HC        1 <0>         0.0000
     51 H24         2.5289    1.1133    0.0000 HC        1 <0>         0.0000
     52 H25         2.5289    1.1133    0.0000 HC        1 <0>         0.0000
     53 H26         2.5289    1.1133    0.0000 HC        1 <0>         0.0000
     54 H27         3.0999    0.0863    0.0000 HC        1 <0>         0.0000
     55 H28         3.0999    0.0863    0.0000 HC        1 <0>         0.0000
     56 H29         3.0999    0.0863    0.0000 HC        1 <0>         0.0000
     57 H30         2.5097    1.9722    0.0000 HC        1 <0>         0.0000
     58 H31         2.5097    1.9722    0.0000 HC        1 <0>         0.0000
     59 H32         3.2439    1.5739    0.0000 HC        1 <0>         0.0000
     60 H33         3.2439    1.5739    0.0000 HC        1 <0>         0.0000
     61 H34         3.2439    1.5739    0.0000 HC        1 <0>         0.0000
@<TRIPOS>BOND
     1    1    2 1
     2    3    6 1
     3    1    4 1
     4    2    5 1
     5    6    9 1
     6    3    7 1
     7    1    8 1
     8    8    9 1
     9    4   10 1
    10    3   11 1
    11    2   12 1
    12    7   13 2
    13    5   14 1
    14   11   15 2
    15    4   16 1
    16   15   17 1
    17   14   18 1
    18   16   19 2
    19   17   20 2
    20    1   21 1
    21    9   22 1
    22    3   23 1
    23    4   24 1
    24   10   25 1
    25   16   26 1
    26   26   27 1
    27    2   28 1
    28    5   29 1
    29    6   30 1
    30   10   12 1
    31    5    6 1
    32    7   18 1
    33   13   17 1
    34    8   31 1
    35    8   32 1
    36    9   33 1
    37   10   34 1
    38   11   35 1
    39   12   36 1
    40   12   37 1
    41   13   38 1
    42   14   39 1
    43   14   40 1
    44   15   41 1
    45   18   42 1
    46   18   43 1
    47   21   44 1
    48   21   45 1
    49   21   46 1
    50   22   47 1
    51   23   48 1
    52   23   49 1
    53   23   50 1
    54   24   51 1
    55   24   52 1
    56   24   53 1
    57   25   54 1
    58   25   55 1
    59   25   56 1
    60   26   57 1
    61   26   58 1
    62   27   59 1
    63   27   60 1
    64   27   61 1
@<TRIPOS>MOLECULE
*****
    9     8     0     0     0
SMALL
NO_CHARGES

@<TRIPOS>ATOM
      1 O1          2.0930   -0.2063    0.0000 OH        1 <0>         0.0000
      2 C1          2.8075    0.2063    0.0000 CT        1 <0>         0.0000
      3 C2          3.5219   -0.2063    0.0000 CT        1 <0>         0.0000
      4 H1          2.0930   -0.2063    0.0000 HO        1 <0>         0.0000
      5 H2          2.8075    0.2063    0.0000 H1        1 <0>         0.0000
      6 H3          2.8075    0.2063    0.0000 H1        1 <0>         0.0000
      7 H4          3.5219   -0.2063    0.0000 HC        1 <0>         0.0000
      8 H5          3.5219   -0.2063    0.0000 HC        1 <0>         0.0000
      9 H6          3.5219   -0.2063    0.0000 HC        1 <0>         0.0000
@<TRIPOS>BOND
     1    1    2 1
     2    2    3 1
     3    1    4 1
     4    2    5 1
     5    2    6 1
     6    3    7 1
     7    3    8 1
     8    3    9 1
@<TRIPOS>MOLECULE
910
   74    76     0     0     0
SMALL
NO_CHARGES

@<TRIPOS>ATOM
      1 O1          7.9284    4.5423    0.0000 OH        1 <0>         0.0000
      2 O2          4.5080   -4.1363    0.0000 OH        1 <0>         0.0000
      3 O3          1.6500   -4.1363    0.0000 OH        1 <0>         0.0000
      4 C1          4.5080    0.8138    0.0000 CT        1 <0>         0.0000
      5 C2          5.2886    1.0653    0.0000 CT        1 <0>         0.0000
      6 C3          4.5080   -0.0112    0.0000 CT        1 <0>         0.0000
      7 C4          5.7701    0.4013    0.0000 CT        1 <0>         0.0000
      8 C5          5.2886   -0.2626    0.0000 CT        1 <0>         0.0000
      9 C6          3.7935    1.2263    0.0000 CT        1 <0>         0.0000
     10 C7          5.5449    1.8494    0.0000 CT        1 <0>         0.0000
     11 C8          3.7935   -0.4237    0.0000 CM        1 <0>         0.0000
     12 C9          4.5080    1.6388    0.0000 CT        1 <0>         0.0000
     13 C10         3.0791    0.8138    0.0000 CT        1 <0>         0.0000
     14 C11         3.0791   -0.0112    0.0000 CT        1 <0>         0.0000
     15 C12         4.9939    2.4635    0.0000 CT        1 <0>         0.0000
     16 C13         6.3522    2.0196    0.0000 CM        1 <0>         0.0000
     17 C14         3.7935   -1.2487    0.0000 CM        1 <0>         0.0000
     18 C15         6.6086    2.8037    0.0000 CM        1 <0>         0.0000
     19 C16         3.0791   -1.6613    0.0000 CM        1 <0>         0.0000
     20 C17         7.4158    2.9739    0.0000 CT        1 <0>         0.0000
     21 C18         3.0791   -2.4863    0.0000 CM        1 <0>         0.0000
     22 C19         7.6721    3.7581    0.0000 CT        1 <0>         0.0000
     23 C20         3.7935   -2.8988    0.0000 CT        1 <0>         0.0000
     24 C21         2.3645   -2.8988    0.0000 CT        1 <0>         0.0000
     25 C22         7.9668    2.3599    0.0000 CT        1 <0>         0.0000
     26 C23         3.7935   -3.7238    0.0000 CT        1 <0>         0.0000
     27 C24         2.3645   -3.7238    0.0000 CT        1 <0>         0.0000
     28 C25         3.0791   -4.1363    0.0000 CT        1 <0>         0.0000
     29 C26         6.8879    4.0144    0.0000 CT        1 <0>         0.0000
     30 C27         8.4563    3.5018    0.0000 CT        1 <0>         0.0000
     31 H1          5.9406    1.1676    0.0000 HC        1 <0>         0.0000
     32 H2          4.5779   -0.6675    0.0000 HC        1 <0>         0.0000
     33 H3          2.4290    0.1035    0.0000 HC        1 <0>         0.0000
     34 H4          7.9284    4.5423    0.0000 HO        1 <0>         0.0000
     35 H5          4.5080   -4.1363    0.0000 HO        1 <0>         0.0000
     36 H6          1.6500   -4.1363    0.0000 HO        1 <0>         0.0000
     37 H7          5.7701    0.4013    0.0000 HC        1 <0>         0.0000
     38 H8          5.7701    0.4013    0.0000 HC        1 <0>         0.0000
     39 H9          5.2886   -0.2626    0.0000 HC        1 <0>         0.0000
     40 H10         5.2886   -0.2626    0.0000 HC        1 <0>         0.0000
     41 H11         3.7935    1.2263    0.0000 HC        1 <0>         0.0000
     42 H12         3.7935    1.2263    0.0000 HC        1 <0>         0.0000
     43 H13         5.5449    1.8494    0.0000 HC        1 <0>         0.0000
     44 H14         4.5080    1.6388    0.0000 HC        1 <0>         0.0000
     45 H15         4.5080    1.6388    0.0000 HC        1 <0>         0.0000
     46 H16         4.5080    1.6388    0.0000 HC        1 <0>         0.0000
     47 H17         3.0791    0.8138    0.0000 HC        1 <0>         0.0000
     48 H18         3.0791    0.8138    0.0000 HC        1 <0>         0.0000
     49 H19         3.0791   -0.0112    0.0000 HC        1 <0>         0.0000
     50 H20         4.9939    2.4635    0.0000 HC        1 <0>         0.0000
     51 H21         4.9939    2.4635    0.0000 HC        1 <0>         0.0000
     52 H22         4.9939    2.4635    0.0000 HC        1 <0>         0.0000
     53 H23         6.3522    2.0196    0.0000 HA        1 <0>         0.0000
     54 H24         3.7935   -1.2487    0.0000 HA        1 <0>         0.0000
     55 H25         6.6086    2.8037    0.0000 HA        1 <0>         0.0000
     56 H26         3.0791   -1.6613    0.0000 HA        1 <0>         0.0000
     57 H27         7.4158    2.9739    0.0000 HC        1 <0>         0.0000
     58 H28         3.7935   -2.8988    0.0000 HC        1 <0>         0.0000
     59 H29         3.7935   -2.8988    0.0000 HC        1 <0>         0.0000
     60 H30         2.3645   -2.8988    0.0000 HC        1 <0>         0.0000
     61 H31         2.3645   -2.8988    0.0000 HC        1 <0>         0.0000
     62 H32         7.9668    2.3599    0.0000 HC        1 <0>         0.0000
     63 H33         7.9668    2.3599    0.0000 HC        1 <0>         0.0000
     64 H34         7.9668    2.3599    0.0000 HC        1 <0>         0.0000
     65 H35         3.7935   -3.7238    0.0000 H1        1 <0>         0.0000
     66 H36         2.3645   -3.7238    0.0000 H1        1 <0>         0.0000
     67 H37         3.0791   -4.1363    0.0000 HC        1 <0>         0.0000
     68 H38         3.0791   -4.1363    0.0000 HC        1 <0>         0.0000
     69 H39         6.8879    4.0144    0.0000 HC        1 <0>         0.0000
     70 H40         6.8879    4.0144    0.0000 HC        1 <0>         0.0000
     71 H41         6.8879    4.0144    0.0000 HC        1 <0>         0.0000
     72 H42         8.4563    3.5018    0.0000 HC        1 <0>         0.0000
     73 H43         8.4563    3.5018    0.0000 HC        1 <0>         0.0000
     74 H44         8.4563    3.5018    0.0000 HC        1 <0>         0.0000
@<TRIPOS>BOND
     1    1   22 1
     2    2   26 1
     3    3   27 1
     4    4    5 1
     5    4    6 1
     6    4    9 1
     7    4   12 1
     8    5    7 1
     9    5   10 1
    10    5   31 1
    11    6    8 1
    12    6   11 1
    13    6   32 1
    14    7    8 1
    15    9   13 1
    16   10   15 1
    17   10   16 1
    18   11   14 1
    19   11   17 2
    20   13   14 1
    21   14   33 1
    22   16   18 2
    23   17   19 1
    24   18   20 1
    25   19   21 2
    26   20   22 1
    27   20   25 1
    28   21   23 1
    29   21   24 1
    30   22   29 1
    31   22   30 1
    32   23   26 1
    33   24   27 1
    34   26   28 1
    35   27   28 1
    36    1   34 1
    37    2   35 1
    38    3   36 1
    39    7   37 1
    40    7   38 1
    41    8   39 1
    42    8   40 1
    43    9   41 1
    44    9   42 1
    45   10   43 1
    46   12   44 1
    47   12   45 1
    48   12   46 1
    49   13   47 1
    50   13   48 1
    51   14   49 1
    52   15   50 1
    53   15   51 1
    54   15   52 1
    55   16   53 1
    56   17   54 1
    57   18   55 1
    58   19   56 1
    59   20   57 1
    60   23   58 1
    61   23   59 1
    62   24   60 1
    63   24   61 1
    64   25   62 1
    65   25   63 1
    66   25   64 1
    67   26   65 1
    68   27   66 1
    69   28   67 1
    70   28   68 1
    71   29   69 1
    72   29   70 1
    73   29   71 1
    74   30   72 1
    75   30   73 1
    76   30   74 1
@<TRIPOS>MOLECULE
*****
   57    57     0     0     0
SMALL
NO_CHARGES

@<TRIPOS>ATOM
      1 O1          8.5222   -1.7365    0.0000 OH        1 <0>         0.0000
      2 O2          6.1727   -3.4435    0.0000 O         1 <0>         0.0000
      3 O3          7.0701    0.9685    0.0000 OH        1 <0>         0.0000
      4 O4          2.1365    0.8972    0.0000 OH        1 <0>         0.0000
      5 O5          1.6949   -0.4618    0.0000 O         1 <0>         0.0000
      6 C1          7.0701   -1.5065    0.0000 CT        1 <0>         0.0000
      7 C2          6.4027   -1.9915    0.0000 CT        1 <0>         0.0000
      8 C3          7.7375   -1.9915    0.0000 CT        1 <0>         0.0000
      9 C4          7.4826   -2.7761    0.0000 CT        1 <0>         0.0000
     10 C5          6.6576   -2.7761    0.0000 C         1 <0>         0.0000
     11 C6          5.6180   -1.7365    0.0000 CT        1 <0>         0.0000
     12 C7          7.0701   -0.6815    0.0000 CM        1 <0>         0.0000
     13 C8          7.7846   -0.2690    0.0000 CM        1 <0>         0.0000
     14 C9          5.0050   -2.2886    0.0000 CM        1 <0>         0.0000
     15 C10         7.7846    0.5560    0.0000 CT        1 <0>         0.0000
     16 C11         8.4990    0.9685    0.0000 CT        1 <0>         0.0000
     17 C12         8.4990    1.7935    0.0000 CT        1 <0>         0.0000
     18 C13         4.2203   -2.0336    0.0000 CM        1 <0>         0.0000
     19 C14         9.2136    2.2060    0.0000 CT        1 <0>         0.0000
     20 C15         4.0488   -1.2266    0.0000 CT        1 <0>         0.0000
     21 C16         9.2136    3.0310    0.0000 CT        1 <0>         0.0000
     22 C17         3.2641   -0.9717    0.0000 CT        1 <0>         0.0000
     23 C18         3.0926   -0.1647    0.0000 CT        1 <0>         0.0000
     24 C19         9.9280    3.4435    0.0000 CT        1 <0>         0.0000
     25 C20         2.3080    0.0903    0.0000 C         1 <0>         0.0000
     26 H1          8.5222   -1.7365    0.0000 HO        1 <0>         0.0000
     27 H2          7.0701    0.9685    0.0000 HO        1 <0>         0.0000
     28 H3          2.1365    0.8972    0.0000 HO        1 <0>         0.0000
     29 H4          7.0701   -1.5065    0.0000 HC        1 <0>         0.0000
     30 H5          6.4027   -1.9915    0.0000 HC        1 <0>         0.0000
     31 H6          7.7375   -1.9915    0.0000 H1        1 <0>         0.0000
     32 H7          7.4826   -2.7761    0.0000 HC        1 <0>         0.0000
     33 H8          7.4826   -2.7761    0.0000 HC        1 <0>         0.0000
     34 H9          5.6180   -1.7365    0.0000 HC        1 <0>         0.0000
     35 H10         5.6180   -1.7365    0.0000 HC        1 <0>         0.0000
     36 H11         7.0701   -0.6815    0.0000 HA        1 <0>         0.0000
     37 H12         7.7846   -0.2690    0.0000 HA        1 <0>         0.0000
     38 H13         5.0050   -2.2886    0.0000 HA        1 <0>         0.0000
     39 H14         7.7846    0.5560    0.0000 H1        1 <0>         0.0000
     40 H15         8.4990    0.9685    0.0000 HC        1 <0>         0.0000
     41 H16         8.4990    0.9685    0.0000 HC        1 <0>         0.0000
     42 H17         8.4990    1.7935    0.0000 HC        1 <0>         0.0000
     43 H18         8.4990    1.7935    0.0000 HC        1 <0>         0.0000
     44 H19         4.2203   -2.0336    0.0000 HA        1 <0>         0.0000
     45 H20         9.2136    2.2060    0.0000 HC        1 <0>         0.0000
     46 H21         9.2136    2.2060    0.0000 HC        1 <0>         0.0000
     47 H22         4.0488   -1.2266    0.0000 HC        1 <0>         0.0000
     48 H23         4.0488   -1.2266    0.0000 HC        1 <0>         0.0000
     49 H24         9.2136    3.0310    0.0000 HC        1 <0>         0.0000
     50 H25         9.2136    3.0310    0.0000 HC        1 <0>         0.0000
     51 H26         3.2641   -0.9717    0.0000 HC        1 <0>         0.0000
     52 H27         3.2641   -0.9717    0.0000 HC        1 <0>         0.0000
     53 H28         3.0926   -0.1647    0.0000 HC        1 <0>         0.0000
     54 H29         3.0926   -0.1647    0.0000 HC        1 <0>         0.0000
     55 H30         9.9280    3.4435    0.0000 HC        1 <0>         0.0000
     56 H31         9.9280    3.4435    0.0000 HC        1 <0>         0.0000
     57 H32         9.9280    3.4435    0.0000 HC        1 <0>         0.0000
@<TRIPOS>BOND
     1    1    8 1
     2    2   10 2
     3    3   15 1
     4    4   25 1
     5    5   25 2
     6    6    7 1
     7    6    8 1
     8    6   12 1
     9    7   10 1
    10    7   11 1
    11    8    9 1
    12    9   10 1
    13   11   14 1
    14   12   13 2
    15   13   15 1
    16   14   18 2
    17   15   16 1
    18   16   17 1
    19   17   19 1
    20   18   20 1
    21   19   21 1
    22   20   22 1
    23   21   24 1
    24   22   23 1
    25   23   25 1
    26    1   26 1
    27    3   27 1
    28    4   28 1
    29    6   29 1
    30    7   30 1
    31    8   31 1
    32    9   32 1
    33    9   33 1
    34   11   34 1
    35   11   35 1
    36   12   36 1
    37   13   37 1
    38   14   38 1
    39   15   39 1
    40   16   40 1
    41   16   41 1
    42   17   42 1
    43   17   43 1
    44   18   44 1
    45   19   45 1
    46   19   46 1
    47   20   47 1
    48   20   48 1
    49   21   49 1
    50   21   50 1
    51   22   51 1
    52   22   52 1
    53   23   53 1
    54   23   54 1
    55   24   55 1
    56   24   56 1
    57   24   57 1
@<TRIPOS>MOLECULE
926
   56    56     0     0     0
SMALL
NO_CHARGES

@<TRIPOS>ATOM
      1 O1          3.0791   -4.7439    0.0000 OS        1 <0>         0.0000
      2 O2          6.6515    3.9188    0.0000 OS        1 <0>         0.0000
      3 O3          5.2224    3.9188    0.0000 O         1 <0>         0.0000
      4 C1          2.3645   -2.6813    0.0000 CA        1 <0>         0.0000
      5 C2          3.0791   -2.2688    0.0000 CA        1 <0>         0.0000
      6 C3          2.3645   -3.5063    0.0000 CA        1 <0>         0.0000
      7 C4          3.7935   -2.6813    0.0000 CA        1 <0>         0.0000
      8 C5          3.0791   -3.9188    0.0000 CA        1 <0>         0.0000
      9 C6          3.7935   -3.5063    0.0000 CA        1 <0>         0.0000
     10 C7          1.6500   -2.2688    0.0000 CT        1 <0>         0.0000
     11 C8          3.0791   -1.4438    0.0000 CM        1 <0>         0.0000
     12 C9          1.6500   -3.9188    0.0000 CT        1 <0>         0.0000
     13 C10         4.5080   -2.2688    0.0000 CT        1 <0>         0.0000
     14 C11         3.7935   -1.0313    0.0000 CM        1 <0>         0.0000
     15 C12         3.7935   -0.2063    0.0000 CM        1 <0>         0.0000
     16 C13         3.7935   -5.1564    0.0000 CT        1 <0>         0.0000
     17 C14         3.0791    0.2063    0.0000 CT        1 <0>         0.0000
     18 C15         4.5080    0.2063    0.0000 CM        1 <0>         0.0000
     19 C16         4.5080    1.0313    0.0000 CM        1 <0>         0.0000
     20 C17         5.2224    1.4438    0.0000 CM        1 <0>         0.0000
     21 C18         5.2224    2.2688    0.0000 CM        1 <0>         0.0000
     22 C19         4.5080    2.6813    0.0000 CT        1 <0>         0.0000
     23 C20         5.9370    2.6813    0.0000 CM        1 <0>         0.0000
     24 C21         5.9370    3.5063    0.0000 C         1 <0>         0.0000
     25 C22         6.6515    4.7439    0.0000 CT        1 <0>         0.0000
     26 C23         7.3659    5.1564    0.0000 CT        1 <0>         0.0000
     27 H1          3.7935   -3.5063    0.0000 HA        1 <0>         0.0000
     28 H2          1.6500   -2.2688    0.0000 HC        1 <0>         0.0000
     29 H3          1.6500   -2.2688    0.0000 HC        1 <0>         0.0000
     30 H4          1.6500   -2.2688    0.0000 HC        1 <0>         0.0000
     31 H5          3.0791   -1.4438    0.0000 HA        1 <0>         0.0000
     32 H6          1.6500   -3.9188    0.0000 HC        1 <0>         0.0000
     33 H7          1.6500   -3.9188    0.0000 HC        1 <0>         0.0000
     34 H8          1.6500   -3.9188    0.0000 HC        1 <0>         0.0000
     35 H9          4.5080   -2.2688    0.0000 HC        1 <0>         0.0000
     36 H10         4.5080   -2.2688    0.0000 HC        1 <0>         0.0000
     37 H11         4.5080   -2.2688    0.0000 HC        1 <0>         0.0000
     38 H12         3.7935   -1.0313    0.0000 HA        1 <0>         0.0000
     39 H13         3.7935   -5.1564    0.0000 H1        1 <0>         0.0000
     40 H14         3.7935   -5.1564    0.0000 H1        1 <0>         0.0000
     41 H15         3.7935   -5.1564    0.0000 H1        1 <0>         0.0000
     42 H16         3.0791    0.2063    0.0000 HC        1 <0>         0.0000
     43 H17         3.0791    0.2063    0.0000 HC        1 <0>         0.0000
     44 H18         3.0791    0.2063    0.0000 HC        1 <0>         0.0000
     45 H19         4.5080    0.2063    0.0000 HA        1 <0>         0.0000
     46 H20         4.5080    1.0313    0.0000 HA        1 <0>         0.0000
     47 H21         5.2224    1.4438    0.0000 HA        1 <0>         0.0000
     48 H22         4.5080    2.6813    0.0000 HC        1 <0>         0.0000
     49 H23         4.5080    2.6813    0.0000 HC        1 <0>         0.0000
     50 H24         4.5080    2.6813    0.0000 HC        1 <0>         0.0000
     51 H25         5.9370    2.6813    0.0000 HA        1 <0>         0.0000
     52 H26         6.6515    4.7439    0.0000 H1        1 <0>         0.0000
     53 H27         6.6515    4.7439    0.0000 H1        1 <0>         0.0000
     54 H28         7.3659    5.1564    0.0000 HC        1 <0>         0.0000
     55 H29         7.3659    5.1564    0.0000 HC        1 <0>         0.0000
     56 H30         7.3659    5.1564    0.0000 HC        1 <0>         0.0000
@<TRIPOS>BOND
     1    1    8 1
     2    1   16 1
     3    2   24 1
     4    2   25 1
     5    3   24 2
     6    4    5 ar
     7    4    6 ar
     8    4   10 1
     9    5    7 ar
    10    5   11 1
    11    6    8 ar
    12    6   12 1
    13    7    9 ar
    14    7   13 1
    15    8    9 ar
    16   11   14 2
    17   14   15 1
    18   15   17 1
    19   15   18 2
    20   18   19 1
    21   19   20 2
    22   20   21 1
    23   21   22 1
    24   21   23 2
    25   23   24 1
    26   25   26 1
    27    9   27 1
    28   10   28 1
    29   10   29 1
    30   10   30 1
    31   11   31 1
    32   12   32 1
    33   12   33 1
    34   12   34 1
    35   13   35 1
    36   13   36 1
    37   13   37 1
    38   14   38 1
    39   16   39 1
    40   16   40 1
    41   16   41 1
    42   17   42 1
    43   17   43 1
    44   17   44 1
    45   18   45 1
    46   19   46 1
    47   20   47 1
    48   22   48 1
    49   22   49 1
    50   22   50 1
    51   23   51 1
    52   25   52 1
    53   25   53 1
    54   26   54 1
    55   26   55 1
    56   26   56 1
@<TRIPOS>MOLECULE
929
   65    65     0     0     0
SMALL
NO_CHARGES

@<TRIPOS>ATOM
      1 O1         10.1452   -1.7365    0.0000 OH        1 <0>         0.0000
      2 O2          7.7957   -3.4435    0.0000 O         1 <0>         0.0000
      3 O3          9.7096    1.6830    0.0000 OH        1 <0>         0.0000
      4 O4          2.4347   -3.1799    0.0000 OS        1 <0>         0.0000
      5 O5          2.8763   -1.8208    0.0000 O         1 <0>         0.0000
      6 C1          8.0257   -1.9915    0.0000 CT        1 <0>         0.0000
      7 C2          8.6931   -1.5066    0.0000 CT        1 <0>         0.0000
      8 C3          9.3606   -1.9915    0.0000 CT        1 <0>         0.0000
      9 C4          9.1056   -2.7761    0.0000 CT        1 <0>         0.0000
     10 C5          7.2410   -1.7365    0.0000 CT        1 <0>         0.0000
     11 C6          8.2806   -2.7761    0.0000 C         1 <0>         0.0000
     12 C7          8.6931   -0.6815    0.0000 CM        1 <0>         0.0000
     13 C8          6.6279   -2.2886    0.0000 CT        1 <0>         0.0000
     14 C9          5.8433   -2.0337    0.0000 CT        1 <0>         0.0000
     15 C10         9.4076   -0.2690    0.0000 CM        1 <0>         0.0000
     16 C11        10.1221    0.9685    0.0000 CT        1 <0>         0.0000
     17 C12         9.4076    0.5560    0.0000 CT        1 <0>         0.0000
     18 C13         5.2302   -2.5857    0.0000 CT        1 <0>         0.0000
     19 C14        10.8366    1.3810    0.0000 CT        1 <0>         0.0000
     20 C15        10.5346    0.2540    0.0000 CT        1 <0>         0.0000
     21 C16         4.4455   -2.3308    0.0000 CT        1 <0>         0.0000
     22 C17        10.8366    2.2060    0.0000 CT        1 <0>         0.0000
     23 C18        11.5511    2.6185    0.0000 CT        1 <0>         0.0000
     24 C19         3.8325   -2.8828    0.0000 CT        1 <0>         0.0000
     25 C20        11.5511    3.4435    0.0000 CT        1 <0>         0.0000
     26 C21         3.0478   -2.6278    0.0000 C         1 <0>         0.0000
     27 C22         1.6500   -2.9249    0.0000 CT        1 <0>         0.0000
     28 H1         10.1452   -1.7365    0.0000 HO        1 <0>         0.0000
     29 H2          9.7096    1.6830    0.0000 HO        1 <0>         0.0000
     30 H3          8.0257   -1.9915    0.0000 HC        1 <0>         0.0000
     31 H4          8.6931   -1.5066    0.0000 HC        1 <0>         0.0000
     32 H5          9.3606   -1.9915    0.0000 H1        1 <0>         0.0000
     33 H6          9.1056   -2.7761    0.0000 HC        1 <0>         0.0000
     34 H7          9.1056   -2.7761    0.0000 HC        1 <0>         0.0000
     35 H8          7.2410   -1.7365    0.0000 HC        1 <0>         0.0000
     36 H9          7.2410   -1.7365    0.0000 HC        1 <0>         0.0000
     37 H10         8.6931   -0.6815    0.0000 HA        1 <0>         0.0000
     38 H11         6.6279   -2.2886    0.0000 HC        1 <0>         0.0000
     39 H12         6.6279   -2.2886    0.0000 HC        1 <0>         0.0000
     40 H13         5.8433   -2.0337    0.0000 HC        1 <0>         0.0000
     41 H14         5.8433   -2.0337    0.0000 HC        1 <0>         0.0000
     42 H15         9.4076   -0.2690    0.0000 HA        1 <0>         0.0000
     43 H16         9.4076    0.5560    0.0000 HC        1 <0>         0.0000
     44 H17         9.4076    0.5560    0.0000 HC        1 <0>         0.0000
     45 H18         5.2302   -2.5857    0.0000 HC        1 <0>         0.0000
     46 H19         5.2302   -2.5857    0.0000 HC        1 <0>         0.0000
     47 H20        10.8366    1.3810    0.0000 HC        1 <0>         0.0000
     48 H21        10.8366    1.3810    0.0000 HC        1 <0>         0.0000
     49 H22        10.5346    0.2540    0.0000 HC        1 <0>         0.0000
     50 H23        10.5346    0.2540    0.0000 HC        1 <0>         0.0000
     51 H24        10.5346    0.2540    0.0000 HC        1 <0>         0.0000
     52 H25         4.4455   -2.3308    0.0000 HC        1 <0>         0.0000
     53 H26         4.4455   -2.3308    0.0000 HC        1 <0>         0.0000
     54 H27        10.8366    2.2060    0.0000 HC        1 <0>         0.0000
     55 H28        10.8366    2.2060    0.0000 HC        1 <0>         0.0000
     56 H29        11.5511    2.6185    0.0000 HC        1 <0>         0.0000
     57 H30        11.5511    2.6185    0.0000 HC        1 <0>         0.0000
     58 H31         3.8325   -2.8828    0.0000 HC        1 <0>         0.0000
     59 H32         3.8325   -2.8828    0.0000 HC        1 <0>         0.0000
     60 H33        11.5511    3.4435    0.0000 HC        1 <0>         0.0000
     61 H34        11.5511    3.4435    0.0000 HC        1 <0>         0.0000
     62 H35        11.5511    3.4435    0.0000 HC        1 <0>         0.0000
     63 H36         1.6500   -2.9249    0.0000 H1        1 <0>         0.0000
     64 H37         1.6500   -2.9249    0.0000 H1        1 <0>         0.0000
     65 H38         1.6500   -2.9249    0.0000 H1        1 <0>         0.0000
@<TRIPOS>BOND
     1    1    8 1
     2    2   11 2
     3    3   16 1
     4    4   26 1
     5    4   27 1
     6    5   26 2
     7    6    7 1
     8    6   10 1
     9    6   11 1
    10    7    8 1
    11    7   12 1
    12    8    9 1
    13    9   11 1
    14   10   13 1
    15   12   15 2
    16   13   14 1
    17   14   18 1
    18   15   17 1
    19   16   17 1
    20   16   19 1
    21   16   20 1
    22   18   21 1
    23   19   22 1
    24   21   24 1
    25   22   23 1
    26   23   25 1
    27   24   26 1
    28    1   28 1
    29    3   29 1
    30    6   30 1
    31    7   31 1
    32    8   32 1
    33    9   33 1
    34    9   34 1
    35   10   35 1
    36   10   36 1
    37   12   37 1
    38   13   38 1
    39   13   39 1
    40   14   40 1
    41   14   41 1
    42   15   42 1
    43   17   43 1
    44   17   44 1
    45   18   45 1
    46   18   46 1
    47   19   47 1
    48   19   48 1
    49   20   49 1
    50   20   50 1
    51   20   51 1
    52   21   52 1
    53   21   53 1
    54   22   54 1
    55   22   55 1
    56   23   56 1
    57   23   57 1
    58   24   58 1
    59   24   59 1
    60   25   60 1
    61   25   61 1
    62   25   62 1
    63   27   63 1
    64   27   64 1
    65   27   65 1
@<TRIPOS>MOLECULE
Salicylic acid
   16    16     0     0     0
SMALL
NO_CHARGES

@<TRIPOS>ATOM
      1 O1         16.1680  -10.0031    0.0000 OH        1 <0>         0.0000
      2 O2         14.0521   -8.8508    0.0000 O         1 <0>         0.0000
      3 O3         15.4701   -8.8471    0.0000 OH        1 <0>         0.0000
      4 C1         14.7462  -10.0031    0.0000 CA        1 <0>         0.0000
      5 C2         15.4627  -10.4120    0.0000 CA        1 <0>         0.0000
      6 C3         14.7612   -9.2561    0.0000 C         1 <0>         0.0000
      7 C4         14.0410  -10.4120    0.0000 CA        1 <0>         0.0000
      8 C5         15.4627  -11.2373    0.0000 CA        1 <0>         0.0000
      9 C6         14.0410  -11.2373    0.0000 CA        1 <0>         0.0000
     10 C7         14.7462  -11.6538    0.0000 CA        1 <0>         0.0000
     11 H1         16.1680  -10.0031    0.0000 HO        1 <0>         0.0000
     12 H2         15.4701   -8.8471    0.0000 HO        1 <0>         0.0000
     13 H3         14.0410  -10.4120    0.0000 HA        1 <0>         0.0000
     14 H4         15.4627  -11.2373    0.0000 HA        1 <0>         0.0000
     15 H5         14.0410  -11.2373    0.0000 HA        1 <0>         0.0000
     16 H6         14.7462  -11.6538    0.0000 HA        1 <0>         0.0000
@<TRIPOS>BOND
     1    1    5 1
     2    2    6 2
     3    3    6 1
     4    4    5 ar
     5    4    7 ar
     6    5    8 ar
     7    7    9 ar
     8    8   10 ar
     9    9   10 ar
    10    4    6 1
    11    1   11 1
    12    3   12 1
    13    7   13 1
    14    8   14 1
    15    9   15 1
    16   10   16 1
@<TRIPOS>MOLECULE
945
   21    21     0     0     0
SMALL
NO_CHARGES

@<TRIPOS>ATOM
      1 O1          3.0791   -0.0495    0.0000 OS        1 <0>         0.0000
      2 O2          5.2224    1.1880    0.0000 OH        1 <0>         0.0000
      3 O3          3.7935    1.1880    0.0000 O         1 <0>         0.0000
      4 O4          2.3645   -1.2870    0.0000 O         1 <0>         0.0000
      5 C1          3.7935   -0.4620    0.0000 CA        1 <0>         0.0000
      6 C2          4.5080   -0.0495    0.0000 CA        1 <0>         0.0000
      7 C3          3.7935   -1.2870    0.0000 CA        1 <0>         0.0000
      8 C4          5.2224   -0.4620    0.0000 CA        1 <0>         0.0000
      9 C5          4.5080   -1.6995    0.0000 CA        1 <0>         0.0000
     10 C6          5.2224   -1.2870    0.0000 CA        1 <0>         0.0000
     11 C7          4.5080    0.7755    0.0000 C         1 <0>         0.0000
     12 C8          2.3645   -0.4620    0.0000 C         1 <0>         0.0000
     13 C9          1.6500   -0.0495    0.0000 CT        1 <0>         0.0000
     14 H1          5.2224    1.1880    0.0000 HO        1 <0>         0.0000
     15 H2          3.7935   -1.2870    0.0000 HA        1 <0>         0.0000
     16 H3          5.2224   -0.4620    0.0000 HA        1 <0>         0.0000
     17 H4          4.5080   -1.6995    0.0000 HA        1 <0>         0.0000
     18 H5          5.2224   -1.2870    0.0000 HA        1 <0>         0.0000
     19 H6          1.6500   -0.0495    0.0000 HC        1 <0>         0.0000
     20 H7          1.6500   -0.0495    0.0000 HC        1 <0>         0.0000
     21 H8          1.6500   -0.0495    0.0000 HC        1 <0>         0.0000
@<TRIPOS>BOND
     1    1    5 1
     2    1   12 1
     3    2   11 1
     4    3   11 2
     5    4   12 2
     6    5    6 ar
     7    5    7 ar
     8    6    8 ar
     9    6   11 1
    10    7    9 ar
    11    8   10 ar
    12    9   10 ar
    13   12   13 1
    14    2   14 1
    15    7   15 1
    16    8   16 1
    17    9   17 1
    18   10   18 1
    19   13   19 1
    20   13   20 1
    21   13   21 1
@<TRIPOS>MOLECULE
*****
   37    39     0     0     0
SMALL
NO_CHARGES

@<TRIPOS>ATOM
      1 C1         -3.1527    0.6777    0.0000 CA        1 <0>         0.0000
      2 C2         -3.8671    0.2652    0.0000 CA        1 <0>         0.0000
      3 C3         -3.8671   -0.5598    0.0000 CA        1 <0>         0.0000
      4 C4         -3.1527   -0.9723    0.0000 CA        1 <0>         0.0000
      5 C5         -2.4382   -0.5598    0.0000 CB        1 <0>         0.0000
      6 C6         -2.4382    0.2652    0.0000 CB        1 <0>         0.0000
      7 O1         -1.7237    0.6777    0.0000 OS        1 <0>         0.0000
      8 C7         -1.7237   -0.9723    0.0000 CA        1 <0>         0.0000
      9 C8         -1.0093   -0.5598    0.0000 CA        1 <0>         0.0000
     10 C9         -1.0093    0.2652    0.0000 C         1 <0>         0.0000
     11 C10        -0.2948   -0.9723    0.0000 CT        1 <0>         0.0000
     12 C11         0.4197   -0.5598    0.0000 CA        1 <0>         0.0000
     13 C12         1.1341    0.6777    0.0000 CA        1 <0>         0.0000
     14 C13         0.4197    0.2652    0.0000 CA        1 <0>         0.0000
     15 C14         1.1341   -0.9723    0.0000 CA        1 <0>         0.0000
     16 C15         1.8486   -0.5598    0.0000 CA        1 <0>         0.0000
     17 C16         1.8486    0.2652    0.0000 CA        1 <0>         0.0000
     18 C17        -0.2948   -1.7973    0.0000 CT        1 <0>         0.0000
     19 C18         0.4197   -2.2098    0.0000 CT        1 <0>         0.0000
     20 O2         -1.7237   -1.7973    0.0000 OH        1 <0>         0.0000
     21 O3         -0.2948    0.6777    0.0000 O         1 <0>         0.0000
     22 H1         -3.1527    0.6777    0.0000 HA        1 <0>         0.0000
     23 H2         -3.8671    0.2652    0.0000 HA        1 <0>         0.0000
     24 H3         -3.8671   -0.5598    0.0000 HA        1 <0>         0.0000
     25 H4         -3.1527   -0.9723    0.0000 HA        1 <0>         0.0000
     26 H5         -0.2948   -0.9723    0.0000 HC        1 <0>         0.0000
     27 H6          1.1341    0.6777    0.0000 HA        1 <0>         0.0000
     28 H7          0.4197    0.2652    0.0000 HA        1 <0>         0.0000
     29 H8          1.1341   -0.9723    0.0000 HA        1 <0>         0.0000
     30 H9          1.8486   -0.5598    0.0000 HA        1 <0>         0.0000
     31 H10         1.8486    0.2652    0.0000 HA        1 <0>         0.0000
     32 H11        -0.2948   -1.7973    0.0000 HC        1 <0>         0.0000
     33 H12        -0.2948   -1.7973    0.0000 HC        1 <0>         0.0000
     34 H13         0.4197   -2.2098    0.0000 HC        1 <0>         0.0000
     35 H14         0.4197   -2.2098    0.0000 HC        1 <0>         0.0000
     36 H15         0.4197   -2.2098    0.0000 HC        1 <0>         0.0000
     37 H16        -1.7237   -1.7973    0.0000 HO        1 <0>         0.0000
@<TRIPOS>BOND
     1    1    2 ar
     2    1    6 ar
     3    2    3 ar
     4    3    4 ar
     5    4    5 ar
     6    6    7 1
     7    5    6 ar
     8    5    8 1
     9    7   10 1
    10    8    9 2
    11    9   10 1
    12    9   11 1
    13   11   12 1
    14   12   14 ar
    15   12   15 ar
    16   13   14 ar
    17   13   17 ar
    18   15   16 ar
    19   16   17 ar
    20   11   18 1
    21   18   19 1
    22    8   20 1
    23   10   21 2
    24    1   22 1
    25    2   23 1
    26    3   24 1
    27    4   25 1
    28   11   26 1
    29   13   27 1
    30   14   28 1
    31   15   29 1
    32   16   30 1
    33   17   31 1
    34   18   32 1
    35   18   33 1
    36   19   34 1
    37   19   35 1
    38   19   36 1
    39   20   37 1
@<TRIPOS>MOLECULE
959
   57    60     0     0     0
SMALL
NO_CHARGES

@<TRIPOS>ATOM
      1 O1          6.6263    1.9371    0.0000 OH        1 <0>         0.0000
      2 O2          3.9559    1.3132    0.0000 OH        1 <0>         0.0000
      3 O3          7.4634    2.4564    0.0000 O         1 <0>         0.0000
      4 O4          8.9696    1.7827    0.0000 OH        1 <0>         0.0000
      5 O5          1.6500   -1.6175    0.0000 O         1 <0>         0.0000
      6 C1          6.0993    0.9007    0.0000 CT        1 <0>         0.0000
      7 C2          6.0993    0.0757    0.0000 CT        1 <0>         0.0000
      8 C3          5.3849   -0.3368    0.0000 CT        1 <0>         0.0000
      9 C4          4.6703    0.0757    0.0000 CT        1 <0>         0.0000
     10 C5          6.8799    1.1521    0.0000 CT        1 <0>         0.0000
     11 C6          5.3849    1.3132    0.0000 CT        1 <0>         0.0000
     12 C7          4.6703    0.9007    0.0000 CT        1 <0>         0.0000
     13 C8          6.8799   -0.1757    0.0000 CT        1 <0>         0.0000
     14 C9          3.9196   -0.3425    0.0000 CT        1 <0>         0.0000
     15 C10         7.3614    0.4882    0.0000 CT        1 <0>         0.0000
     16 C11         5.3981   -1.1961    0.0000 CT        1 <0>         0.0000
     17 C12         4.6572   -1.6314    0.0000 CT        1 <0>         0.0000
     18 C13         6.0993    1.7257    0.0000 CT        1 <0>         0.0000
     19 C14         3.9130   -1.2018    0.0000 CM        1 <0>         0.0000
     20 C15         7.5482    1.6358    0.0000 C         1 <0>         0.0000
     21 C16         3.9259    0.4825    0.0000 CT        1 <0>         0.0000
     22 C17         3.1550    0.1229    0.0000 CM        1 <0>         0.0000
     23 C18         4.6603   -2.4564    0.0000 CT        1 <0>         0.0000
     24 C19         3.1413   -1.6554    0.0000 CM        1 <0>         0.0000
     25 C20         8.3013    1.2990    0.0000 CT        1 <0>         0.0000
     26 C21         2.3729   -0.3127    0.0000 CM        1 <0>         0.0000
     27 C22         2.3660   -1.2078    0.0000 C         1 <0>         0.0000
     28 H1          6.1691   -0.5806    0.0000 HC        1 <0>         0.0000
     29 H2          5.9589   -0.6624    0.0000 HC        1 <0>         0.0000
     30 H3          5.2420    0.4057    0.0000 HC        1 <0>         0.0000
     31 H4          6.6263    1.9371    0.0000 HO        1 <0>         0.0000
     32 H5          3.9559    1.3132    0.0000 HO        1 <0>         0.0000
     33 H6          8.9696    1.7827    0.0000 HO        1 <0>         0.0000
     34 H7          5.3849    1.3132    0.0000 HC        1 <0>         0.0000
     35 H8          5.3849    1.3132    0.0000 HC        1 <0>         0.0000
     36 H9          4.6703    0.9007    0.0000 H1        1 <0>         0.0000
     37 H10         6.8799   -0.1757    0.0000 HC        1 <0>         0.0000
     38 H11         6.8799   -0.1757    0.0000 HC        1 <0>         0.0000
     39 H12         7.3614    0.4882    0.0000 HC        1 <0>         0.0000
     40 H13         7.3614    0.4882    0.0000 HC        1 <0>         0.0000
     41 H14         5.3981   -1.1961    0.0000 HC        1 <0>         0.0000
     42 H15         5.3981   -1.1961    0.0000 HC        1 <0>         0.0000
     43 H16         4.6572   -1.6314    0.0000 HC        1 <0>         0.0000
     44 H17         6.0993    1.7257    0.0000 HC        1 <0>         0.0000
     45 H18         6.0993    1.7257    0.0000 HC        1 <0>         0.0000
     46 H19         6.0993    1.7257    0.0000 HC        1 <0>         0.0000
     47 H20         3.9259    0.4825    0.0000 HC        1 <0>         0.0000
     48 H21         3.9259    0.4825    0.0000 HC        1 <0>         0.0000
     49 H22         3.9259    0.4825    0.0000 HC        1 <0>         0.0000
     50 H23         3.1550    0.1229    0.0000 HA        1 <0>         0.0000
     51 H24         4.6603   -2.4564    0.0000 HC        1 <0>         0.0000
     52 H25         4.6603   -2.4564    0.0000 HC        1 <0>         0.0000
     53 H26         4.6603   -2.4564    0.0000 HC        1 <0>         0.0000
     54 H27         3.1413   -1.6554    0.0000 HA        1 <0>         0.0000
     55 H28         8.3013    1.2990    0.0000 H1        1 <0>         0.0000
     56 H29         8.3013    1.2990    0.0000 H1        1 <0>         0.0000
     57 H30         2.3729   -0.3127    0.0000 HA        1 <0>         0.0000
@<TRIPOS>BOND
     1    1   10 1
     2    2   12 1
     3    3   20 2
     4    4   25 1
     5    5   27 2
     6    6    7 1
     7    6   10 1
     8    6   11 1
     9    6   18 1
    10    7    8 1
    11    7   13 1
    12    7   28 1
    13    8    9 1
    14    8   16 1
    15    8   29 1
    16    9   12 1
    17    9   14 1
    18    9   30 1
    19   10   15 1
    20   10   20 1
    21   11   12 1
    22   13   15 1
    23   14   19 1
    24   14   21 1
    25   14   22 1
    26   16   17 1
    27   17   19 1
    28   17   23 1
    29   19   24 2
    30   20   25 1
    31   22   26 2
    32   24   27 1
    33   26   27 1
    34    1   31 1
    35    2   32 1
    36    4   33 1
    37   11   34 1
    38   11   35 1
    39   12   36 1
    40   13   37 1
    41   13   38 1
    42   15   39 1
    43   15   40 1
    44   16   41 1
    45   16   42 1
    46   17   43 1
    47   18   44 1
    48   18   45 1
    49   18   46 1
    50   21   47 1
    51   21   48 1
    52   21   49 1
    53   22   50 1
    54   23   51 1
    55   23   52 1
    56   23   53 1
    57   24   54 1
    58   25   55 1
    59   25   56 1
    60   26   57 1
@<TRIPOS>MOLECULE
*****
   46    49     0     0     0
SMALL
NO_CHARGES

@<TRIPOS>ATOM
      1 O1          7.7254    1.5548    0.0000 OH        1 <0>         0.0000
      2 O2          2.3626   -1.9994    0.0000 OH        1 <0>         0.0000
      3 C1          6.8116    0.5185    0.0000 CT        1 <0>         0.0000
      4 C2          6.8116   -0.3064    0.0000 CT        1 <0>         0.0000
      5 C3          6.0971   -0.7188    0.0000 CT        1 <0>         0.0000
      6 C4          7.5921    0.7699    0.0000 CT        1 <0>         0.0000
      7 C5          6.0971    0.9310    0.0000 CT        1 <0>         0.0000
      8 C6          7.5921   -0.5577    0.0000 CT        1 <0>         0.0000
      9 C7          5.3827    0.5185    0.0000 CT        1 <0>         0.0000
     10 C8          8.0734    0.1061    0.0000 CT        1 <0>         0.0000
     11 C9          6.1102   -1.5781    0.0000 CT        1 <0>         0.0000
     12 C10         6.8116    1.3434    0.0000 CT        1 <0>         0.0000
     13 C11         4.6321   -0.7245    0.0000 CA        1 <0>         0.0000
     14 C12         5.3696   -2.0134    0.0000 CT        1 <0>         0.0000
     15 C13         4.6255   -1.5838    0.0000 CA        1 <0>         0.0000
     16 C14         8.2602    0.9263    0.0000 C2        1 <0>         0.0000
     17 C15         3.8674   -0.2592    0.0000 CA        1 <0>         0.0000
     18 C16         3.8538   -2.0372    0.0000 CA        1 <0>         0.0000
     19 C17         3.0855   -0.6947    0.0000 CA        1 <0>         0.0000
     20 C18         3.0785   -1.5898    0.0000 CA        1 <0>         0.0000
     21 C19         9.0774    1.0528    0.0000 C2        1 <0>         0.0000
     22 H1          6.0759    0.0864    0.0000 HC        1 <0>         0.0000
     23 C20         5.3827   -0.3064    0.0000 CT        1 <0>         0.0000
     24 H2          5.3762   -1.1312    0.0000 HC        1 <0>         0.0000
     25 H3          6.8988   -1.1266    0.0000 HC        1 <0>         0.0000
     26 H4          7.7254    1.5548    0.0000 HO        1 <0>         0.0000
     27 H5          2.3626   -1.9994    0.0000 HO        1 <0>         0.0000
     28 H6          6.0971    0.9310    0.0000 HC        1 <0>         0.0000
     29 H7          6.0971    0.9310    0.0000 HC        1 <0>         0.0000
     30 H8          7.5921   -0.5577    0.0000 HC        1 <0>         0.0000
     31 H9          7.5921   -0.5577    0.0000 HC        1 <0>         0.0000
     32 H10         5.3827    0.5185    0.0000 HC        1 <0>         0.0000
     33 H11         5.3827    0.5185    0.0000 HC        1 <0>         0.0000
     34 H12         8.0734    0.1061    0.0000 HC        1 <0>         0.0000
     35 H13         8.0734    0.1061    0.0000 HC        1 <0>         0.0000
     36 H14         6.1102   -1.5781    0.0000 HC        1 <0>         0.0000
     37 H15         6.1102   -1.5781    0.0000 HC        1 <0>         0.0000
     38 H16         6.8116    1.3434    0.0000 HC        1 <0>         0.0000
     39 H17         6.8116    1.3434    0.0000 HC        1 <0>         0.0000
     40 H18         6.8116    1.3434    0.0000 HC        1 <0>         0.0000
     41 H19         5.3696   -2.0134    0.0000 HC        1 <0>         0.0000
     42 H20         5.3696   -2.0134    0.0000 HC        1 <0>         0.0000
     43 H21         3.8674   -0.2592    0.0000 HA        1 <0>         0.0000
     44 H22         3.8538   -2.0372    0.0000 HA        1 <0>         0.0000
     45 H23         3.0855   -0.6947    0.0000 HA        1 <0>         0.0000
     46 H24         9.0774    1.0528    0.0000 HC        1 <0>         0.0000
@<TRIPOS>BOND
     1    1    6 1
     2    2   20 1
     3    3    4 1
     4    3    6 1
     5    3    7 1
     6    3   12 1
     7    4    5 1
     8    4    8 1
     9    5   11 1
    10    5   22 1
    11    6   10 1
    12    6   16 1
    13    7    9 1
    14    8   10 1
    15   11   14 1
    16   13   15 ar
    17   13   17 ar
    18   14   15 1
    19   15   18 ar
    20   16   21 3
    21   17   19 ar
    22   18   20 ar
    23   19   20 ar
    24    5   23 1
    25    9   23 1
    26   13   23 1
    27   23   24 1
    28    4   25 1
    29    1   26 1
    30    2   27 1
    31    7   28 1
    32    7   29 1
    33    8   30 1
    34    8   31 1
    35    9   32 1
    36    9   33 1
    37   10   34 1
    38   10   35 1
    39   11   36 1
    40   11   37 1
    41   12   38 1
    42   12   39 1
    43   12   40 1
    44   14   41 1
    45   14   42 1
    46   17   43 1
    47   18   44 1
    48   19   45 1
    49   21   46 1
@<TRIPOS>MOLECULE
*****
   50    50     0     0     0
SMALL
NO_CHARGES

@<TRIPOS>ATOM
      1 C1          0.0000    0.8250    0.0000 CT        1 <0>         0.0000
      2 C2         -0.7145    0.4125    0.0000 CT        1 <0>         0.0000
      3 C3          0.7145    0.4125    0.0000 CM        1 <0>         0.0000
      4 C4          0.7145   -0.4125    0.0000 CM        1 <0>         0.0000
      5 C5          0.0000   -0.8250    0.0000 CT        1 <0>         0.0000
      6 C6         -0.7145   -0.4125    0.0000 CT        1 <0>         0.0000
      7 C7          6.4302    0.4125    0.0000 CM        1 <0>         0.0000
      8 C8          5.7158    0.8250    0.0000 CM        1 <0>         0.0000
      9 C9          5.0013    0.4125    0.0000 CM        1 <0>         0.0000
     10 C10         4.2868    0.8250    0.0000 CM        1 <0>         0.0000
     11 C11         3.5724    0.4125    0.0000 CM        1 <0>         0.0000
     12 C12         2.8579    0.8250    0.0000 CM        1 <0>         0.0000
     13 C13         1.4289    0.8250    0.0000 CM        1 <0>         0.0000
     14 C14         5.7158    1.6500    0.0000 CT        1 <0>         0.0000
     15 C15         2.8579    1.6500    0.0000 CT        1 <0>         0.0000
     16 C16         0.4125    1.5395    0.0000 CT        1 <0>         0.0000
     17 C17        -0.4125    1.5395    0.0000 CT        1 <0>         0.0000
     18 C18         2.1434    0.4125    0.0000 CM        1 <0>         0.0000
     19 C19         1.4289   -0.8250    0.0000 CT        1 <0>         0.0000
     20 C20         6.4302   -0.4125    0.0000 C         1 <0>         0.0000
     21 O1          5.7157   -0.8250    0.0000 O         1 <0>         0.0000
     22 O2          7.1447   -0.8250    0.0000 OH        1 <0>         0.0000
     23 H1         -0.7145    0.4125    0.0000 HC        1 <0>         0.0000
     24 H2         -0.7145    0.4125    0.0000 HC        1 <0>         0.0000
     25 H3          0.0000   -0.8250    0.0000 HC        1 <0>         0.0000
     26 H4          0.0000   -0.8250    0.0000 HC        1 <0>         0.0000
     27 H5         -0.7145   -0.4125    0.0000 HC        1 <0>         0.0000
     28 H6         -0.7145   -0.4125    0.0000 HC        1 <0>         0.0000
     29 H7          6.4302    0.4125    0.0000 HA        1 <0>         0.0000
     30 H8          5.0013    0.4125    0.0000 HA        1 <0>         0.0000
     31 H9          4.2868    0.8250    0.0000 HA        1 <0>         0.0000
     32 H10         3.5724    0.4125    0.0000 HA        1 <0>         0.0000
     33 H11         1.4289    0.8250    0.0000 HA        1 <0>         0.0000
     34 H12         5.7158    1.6500    0.0000 HC        1 <0>         0.0000
     35 H13         5.7158    1.6500    0.0000 HC        1 <0>         0.0000
     36 H14         5.7158    1.6500    0.0000 HC        1 <0>         0.0000
     37 H15         2.8579    1.6500    0.0000 HC        1 <0>         0.0000
     38 H16         2.8579    1.6500    0.0000 HC        1 <0>         0.0000
     39 H17         2.8579    1.6500    0.0000 HC        1 <0>         0.0000
     40 H18         0.4125    1.5395    0.0000 HC        1 <0>         0.0000
     41 H19         0.4125    1.5395    0.0000 HC        1 <0>         0.0000
     42 H20         0.4125    1.5395    0.0000 HC        1 <0>         0.0000
     43 H21        -0.4125    1.5395    0.0000 HC        1 <0>         0.0000
     44 H22        -0.4125    1.5395    0.0000 HC        1 <0>         0.0000
     45 H23        -0.4125    1.5395    0.0000 HC        1 <0>         0.0000
     46 H24         2.1434    0.4125    0.0000 HA        1 <0>         0.0000
     47 H25         1.4289   -0.8250    0.0000 HC        1 <0>         0.0000
     48 H26         1.4289   -0.8250    0.0000 HC        1 <0>         0.0000
     49 H27         1.4289   -0.8250    0.0000 HC        1 <0>         0.0000
     50 H28         7.1447   -0.8250    0.0000 HO        1 <0>         0.0000
@<TRIPOS>BOND
     1    1   16 1
     2    1   17 1
     3    1    2 1
     4    1    3 1
     5    3   13 1
     6    3    4 2
     7    4   19 1
     8    4    5 1
     9    5    6 1
    10    2    6 1
    11    7    8 2
    12    8    9 1
    13    8   14 1
    14    9   10 2
    15   10   11 1
    16   11   12 2
    17   12   18 1
    18   12   15 1
    19   13   18 2
    20    7   20 1
    21   20   21 2
    22   20   22 1
    23    2   23 1
    24    2   24 1
    25    5   25 1
    26    5   26 1
    27    6   27 1
    28    6   28 1
    29    7   29 1
    30    9   30 1
    31   10   31 1
    32   11   32 1
    33   13   33 1
    34   14   34 1
    35   14   35 1
    36   14   36 1
    37   15   37 1
    38   15   38 1
    39   15   39 1
    40   16   40 1
    41   16   41 1
    42   16   42 1
    43   17   43 1
    44   17   44 1
    45   17   45 1
    46   18   46 1
    47   19   47 1
    48   19   48 1
    49   19   49 1
    50   22   50 1
@<TRIPOS>MOLECULE
984
   64    68     0     0     0
SMALL
NO_CHARGES

@<TRIPOS>ATOM
      1 O1          7.1363    0.0573    0.0000 OS        1 <0>         0.0000
      2 O2          1.6500   -3.4965    0.0000 O         1 <0>         0.0000
      3 O3          8.4945   -0.3866    0.0000 O         1 <0>         0.0000
      4 C1          6.0994   -1.8033    0.0000 CT        1 <0>         0.0000
      5 C2          6.0994   -0.9783    0.0000 CT        1 <0>         0.0000
      6 C3          5.3849   -2.2158    0.0000 CT        1 <0>         0.0000
      7 C4          4.6704   -1.8033    0.0000 CT        1 <0>         0.0000
      8 C5          5.3849   -0.5658    0.0000 CT        1 <0>         0.0000
      9 C6          6.8800   -0.7269    0.0000 CT        1 <0>         0.0000
     10 C7          6.8800   -2.0547    0.0000 CT        1 <0>         0.0000
     11 C8          4.6704   -0.9783    0.0000 CT        1 <0>         0.0000
     12 C9          3.9196   -2.2214    0.0000 CT        1 <0>         0.0000
     13 C10         7.3615   -1.3908    0.0000 CT        1 <0>         0.0000
     14 C11         5.3981   -3.0751    0.0000 CT        1 <0>         0.0000
     15 C12         6.0994   -0.1533    0.0000 CT        1 <0>         0.0000
     16 C13         4.6573   -3.5105    0.0000 CT        1 <0>         0.0000
     17 C14         3.9130   -3.0807    0.0000 CM        1 <0>         0.0000
     18 C15         3.1550   -1.7561    0.0000 CT        1 <0>         0.0000
     19 C16         2.3730   -2.1916    0.0000 CT        1 <0>         0.0000
     20 C17         3.1413   -3.5343    0.0000 CM        1 <0>         0.0000
     21 C18         2.3660   -3.0868    0.0000 C         1 <0>         0.0000
     22 C19         7.9436    0.2275    0.0000 C         1 <0>         0.0000
     23 C20         8.1998    1.0116    0.0000 CT        1 <0>         0.0000
     24 C21         9.0071    1.1817    0.0000 CT        1 <0>         0.0000
     25 C22         9.2634    1.9659    0.0000 CA        1 <0>         0.0000
     26 C23         8.7125    2.5800    0.0000 CA        1 <0>         0.0000
     27 C24        10.0707    2.1360    0.0000 CA        1 <0>         0.0000
     28 C25         8.9687    3.3642    0.0000 CA        1 <0>         0.0000
     29 C26        10.3270    2.9203    0.0000 CA        1 <0>         0.0000
     30 C27         9.7760    3.5343    0.0000 CA        1 <0>         0.0000
     31 H1          6.1692   -2.4596    0.0000 HC        1 <0>         0.0000
     32 H2          5.9590   -2.5414    0.0000 HC        1 <0>         0.0000
     33 H3          5.2420   -1.4733    0.0000 HC        1 <0>         0.0000
     34 H4          3.9323   -1.5616    0.0000 HC        1 <0>         0.0000
     35 H5          5.3849   -0.5658    0.0000 HC        1 <0>         0.0000
     36 H6          5.3849   -0.5658    0.0000 HC        1 <0>         0.0000
     37 H7          6.8800   -0.7269    0.0000 H1        1 <0>         0.0000
     38 H8          6.8800   -2.0547    0.0000 HC        1 <0>         0.0000
     39 H9          6.8800   -2.0547    0.0000 HC        1 <0>         0.0000
     40 H10         4.6704   -0.9783    0.0000 HC        1 <0>         0.0000
     41 H11         4.6704   -0.9783    0.0000 HC        1 <0>         0.0000
     42 H12         7.3615   -1.3908    0.0000 HC        1 <0>         0.0000
     43 H13         7.3615   -1.3908    0.0000 HC        1 <0>         0.0000
     44 H14         5.3981   -3.0751    0.0000 HC        1 <0>         0.0000
     45 H15         5.3981   -3.0751    0.0000 HC        1 <0>         0.0000
     46 H16         6.0994   -0.1533    0.0000 HC        1 <0>         0.0000
     47 H17         6.0994   -0.1533    0.0000 HC        1 <0>         0.0000
     48 H18         6.0994   -0.1533    0.0000 HC        1 <0>         0.0000
     49 H19         4.6573   -3.5105    0.0000 HC        1 <0>         0.0000
     50 H20         4.6573   -3.5105    0.0000 HC        1 <0>         0.0000
     51 H21         3.1550   -1.7561    0.0000 HC        1 <0>         0.0000
     52 H22         3.1550   -1.7561    0.0000 HC        1 <0>         0.0000
     53 H23         2.3730   -2.1916    0.0000 HC        1 <0>         0.0000
     54 H24         2.3730   -2.1916    0.0000 HC        1 <0>         0.0000
     55 H25         3.1413   -3.5343    0.0000 HA        1 <0>         0.0000
     56 H26         8.1998    1.0116    0.0000 HC        1 <0>         0.0000
     57 H27         8.1998    1.0116    0.0000 HC        1 <0>         0.0000
     58 H28         9.0071    1.1817    0.0000 HC        1 <0>         0.0000
     59 H29         9.0071    1.1817    0.0000 HC        1 <0>         0.0000
     60 H30         8.7125    2.5800    0.0000 HA        1 <0>         0.0000
     61 H31        10.0707    2.1360    0.0000 HA        1 <0>         0.0000
     62 H32         8.9687    3.3642    0.0000 HA        1 <0>         0.0000
     63 H33        10.3270    2.9203    0.0000 HA        1 <0>         0.0000
     64 H34         9.7760    3.5343    0.0000 HA        1 <0>         0.0000
@<TRIPOS>BOND
     1    1    9 1
     2    1   22 1
     3    2   21 2
     4    3   22 2
     5    4    5 1
     6    4    6 1
     7    4   10 1
     8    4   31 1
     9    5    8 1
    10    5    9 1
    11    5   15 1
    12    6    7 1
    13    6   14 1
    14    6   32 1
    15    7   11 1
    16    7   12 1
    17    7   33 1
    18    8   11 1
    19    9   13 1
    20   10   13 1
    21   12   17 1
    22   12   18 1
    23   12   34 1
    24   14   16 1
    25   16   17 1
    26   17   20 2
    27   18   19 1
    28   19   21 1
    29   20   21 1
    30   22   23 1
    31   23   24 1
    32   24   25 1
    33   25   26 ar
    34   25   27 ar
    35   26   28 ar
    36   27   29 ar
    37   28   30 ar
    38   29   30 ar
    39    8   35 1
    40    8   36 1
    41    9   37 1
    42   10   38 1
    43   10   39 1
    44   11   40 1
    45   11   41 1
    46   13   42 1
    47   13   43 1
    48   14   44 1
    49   14   45 1
    50   15   46 1
    51   15   47 1
    52   15   48 1
    53   16   49 1
    54   16   50 1
    55   18   51 1
    56   18   52 1
    57   19   53 1
    58   19   54 1
    59   20   55 1
    60   23   56 1
    61   23   57 1
    62   24   58 1
    63   24   59 1
    64   26   60 1
    65   27   61 1
    66   28   62 1
    67   29   63 1
    68   30   64 1
@<TRIPOS>MOLECULE
990
   46    49     0     0     0
SMALL
NO_CHARGES

@<TRIPOS>ATOM
      1 O1          7.1359    2.1963    0.0000 O         1 <0>         0.0000
      2 O2          1.6499   -1.3573    0.0000 O         1 <0>         0.0000
      3 C1          6.0989    0.3358    0.0000 CT        1 <0>         0.0000
      4 C2          5.3846   -0.0767    0.0000 CT        1 <0>         0.0000
      5 C3          6.0989    1.1607    0.0000 CT        1 <0>         0.0000
      6 C4          4.6700    0.3358    0.0000 CT        1 <0>         0.0000
      7 C5          5.3846    1.5732    0.0000 CT        1 <0>         0.0000
      8 C6          4.6700    1.1607    0.0000 CT        1 <0>         0.0000
      9 C7          3.9194   -0.0823    0.0000 CT        1 <0>         0.0000
     10 C8          6.8795    0.0844    0.0000 CT        1 <0>         0.0000
     11 C9          5.3978   -0.9359    0.0000 CT        1 <0>         0.0000
     12 C10         6.8795    1.4121    0.0000 C         1 <0>         0.0000
     13 C11         7.3609    0.7483    0.0000 CT        1 <0>         0.0000
     14 C12         6.0989    1.9857    0.0000 CT        1 <0>         0.0000
     15 C13         3.9128   -0.9416    0.0000 CM        1 <0>         0.0000
     16 C14         4.6569   -1.3713    0.0000 CM        1 <0>         0.0000
     17 C15         3.9257    0.7426    0.0000 CT        1 <0>         0.0000
     18 C16         3.1548    0.3830    0.0000 CM        1 <0>         0.0000
     19 C17         3.1411   -1.3951    0.0000 CM        1 <0>         0.0000
     20 C18         2.3728   -0.0526    0.0000 CM        1 <0>         0.0000
     21 C19         4.6600   -2.1963    0.0000 CM        1 <0>         0.0000
     22 C20         2.3659   -0.9476    0.0000 C         1 <0>         0.0000
     23 H1          6.1687   -0.3205    0.0000 HC        1 <0>         0.0000
     24 H2          5.9585   -0.4023    0.0000 HC        1 <0>         0.0000
     25 H3          5.2417    0.6658    0.0000 HC        1 <0>         0.0000
     26 H4          5.3846    1.5732    0.0000 HC        1 <0>         0.0000
     27 H5          5.3846    1.5732    0.0000 HC        1 <0>         0.0000
     28 H6          4.6700    1.1607    0.0000 HC        1 <0>         0.0000
     29 H7          4.6700    1.1607    0.0000 HC        1 <0>         0.0000
     30 H8          6.8795    0.0844    0.0000 HC        1 <0>         0.0000
     31 H9          6.8795    0.0844    0.0000 HC        1 <0>         0.0000
     32 H10         5.3978   -0.9359    0.0000 HC        1 <0>         0.0000
     33 H11         5.3978   -0.9359    0.0000 HC        1 <0>         0.0000
     34 H12         7.3609    0.7483    0.0000 HC        1 <0>         0.0000
     35 H13         7.3609    0.7483    0.0000 HC        1 <0>         0.0000
     36 H14         6.0989    1.9857    0.0000 HC        1 <0>         0.0000
     37 H15         6.0989    1.9857    0.0000 HC        1 <0>         0.0000
     38 H16         6.0989    1.9857    0.0000 HC        1 <0>         0.0000
     39 H17         3.9257    0.7426    0.0000 HC        1 <0>         0.0000
     40 H18         3.9257    0.7426    0.0000 HC        1 <0>         0.0000
     41 H19         3.9257    0.7426    0.0000 HC        1 <0>         0.0000
     42 H20         3.1548    0.3830    0.0000 HA        1 <0>         0.0000
     43 H21         3.1411   -1.3951    0.0000 HA        1 <0>         0.0000
     44 H22         2.3728   -0.0526    0.0000 HA        1 <0>         0.0000
     45 H23         4.6600   -2.1963    0.0000 HA        1 <0>         0.0000
     46 H24         4.6600   -2.1963    0.0000 HA        1 <0>         0.0000
@<TRIPOS>BOND
     1    1   12 2
     2    2   22 2
     3    3    4 1
     4    3    5 1
     5    3   10 1
     6    3   23 1
     7    4    6 1
     8    4   11 1
     9    4   24 1
    10    5    7 1
    11    5   12 1
    12    5   14 1
    13    6    8 1
    14    6    9 1
    15    6   25 1
    16    7    8 1
    17    9   15 1
    18    9   17 1
    19    9   18 1
    20   10   13 1
    21   11   16 1
    22   12   13 1
    23   15   16 1
    24   15   19 2
    25   16   21 2
    26   18   20 2
    27   19   22 1
    28   20   22 1
    29    7   26 1
    30    7   27 1
    31    8   28 1
    32    8   29 1
    33   10   30 1
    34   10   31 1
    35   11   32 1
    36   11   33 1
    37   13   34 1
    38   13   35 1
    39   14   36 1
    40   14   37 1
    41   14   38 1
    42   17   39 1
    43   17   40 1
    44   17   41 1
    45   18   42 1
    46   19   43 1
    47   20   44 1
    48   21   45 1
    49   21   46 1
@<TRIPOS>MOLECULE
*****
   50    53     0     0     0
SMALL
NO_CHARGES

@<TRIPOS>ATOM
      1 C1         -1.4036   -3.9359    0.0000 C         1 <0>         0.0000
      2 C2         -2.1255   -5.1620    0.0000 CA        1 <0>         0.0000
      3 C3         -0.6989   -4.3370    0.0000 CB        1 <0>         0.0000
      4 C4         -2.1255   -4.3370    0.0000 CA        1 <0>         0.0000
      5 C5          4.2969   -3.8901    0.0000 C         1 <0>         0.0000
      6 C6          5.0073   -5.1219    0.0000 CA        1 <0>         0.0000
      7 O1         -1.4036   -5.5745    0.0000 OS        1 <0>         0.0000
      8 C7         -0.6989   -5.1620    0.0000 CB        1 <0>         0.0000
      9 C8          5.0073   -4.3026    0.0000 CA        1 <0>         0.0000
     10 C9          3.5922   -4.3026    0.0000 CB        1 <0>         0.0000
     11 C10         3.5980   -5.1276    0.0000 CB        1 <0>         0.0000
     12 C11        -2.8302   -5.5745    0.0000 C         1 <0>         0.0000
     13 C12         5.7292   -5.5344    0.0000 C         1 <0>         0.0000
     14 O2          4.3026   -5.5344    0.0000 OS        1 <0>         0.0000
     15 C13         0.0172   -3.9245    0.0000 CA        1 <0>         0.0000
     16 C14         2.8761   -3.9073    0.0000 CA        1 <0>         0.0000
     17 O3         -1.4036   -3.1109    0.0000 O         1 <0>         0.0000
     18 O4          4.2855   -3.0651    0.0000 O         1 <0>         0.0000
     19 O5         -2.8474   -6.3995    0.0000 O         1 <0>         0.0000
     20 O6          6.4453   -5.1105    0.0000 OH        1 <0>         0.0000
     21 O7          0.0058   -3.0995    0.0000 OS        1 <0>         0.0000
     22 O8          2.8703   -3.0823    0.0000 OS        1 <0>         0.0000
     23 O9          5.7292   -6.3594    0.0000 O         1 <0>         0.0000
     24 O10        -3.5234   -5.1105    0.0000 OH        1 <0>         0.0000
     25 C15         1.4437   -3.0937    0.0000 CT        1 <0>         0.0000
     26 C16         0.7219   -2.6870    0.0000 CT        1 <0>         0.0000
     27 C17         2.1542   -2.6698    0.0000 CT        1 <0>         0.0000
     28 C18         0.0172   -5.5745    0.0000 CA        1 <0>         0.0000
     29 C19         2.8875   -5.5573    0.0000 CA        1 <0>         0.0000
     30 O11         1.4437   -3.9187    0.0000 OH        1 <0>         0.0000
     31 C20         2.1656   -5.1448    0.0000 CA        1 <0>         0.0000
     32 C21         0.7276   -5.1620    0.0000 CA        1 <0>         0.0000
     33 C22         0.7276   -4.3370    0.0000 CA        1 <0>         0.0000
     34 C23         2.1656   -4.3198    0.0000 CA        1 <0>         0.0000
     35 H1         -2.1255   -4.3370    0.0000 HA        1 <0>         0.0000
     36 H2          5.0073   -4.3026    0.0000 HA        1 <0>         0.0000
     37 H3          6.4453   -5.1105    0.0000 HO        1 <0>         0.0000
     38 H4         -3.5234   -5.1105    0.0000 HO        1 <0>         0.0000
     39 H5          1.4437   -3.0937    0.0000 H1        1 <0>         0.0000
     40 H6          0.7219   -2.6870    0.0000 H1        1 <0>         0.0000
     41 H7          0.7219   -2.6870    0.0000 H1        1 <0>         0.0000
     42 H8          2.1542   -2.6698    0.0000 H1        1 <0>         0.0000
     43 H9          2.1542   -2.6698    0.0000 H1        1 <0>         0.0000
     44 H10         0.0172   -5.5745    0.0000 HA        1 <0>         0.0000
     45 H11         2.8875   -5.5573    0.0000 HA        1 <0>         0.0000
     46 H12         1.4437   -3.9187    0.0000 HO        1 <0>         0.0000
     47 H13         2.1656   -5.1448    0.0000 HA        1 <0>         0.0000
     48 H14         0.7276   -5.1620    0.0000 HA        1 <0>         0.0000
     49 H15         0.7276   -4.3370    0.0000 HA        1 <0>         0.0000
     50 H16         2.1656   -4.3198    0.0000 HA        1 <0>         0.0000
@<TRIPOS>BOND
     1    2    4 2
     2    1    3 1
     3    1    4 1
     4    5   10 1
     5    6   14 1
     6    2    7 1
     7    3    8 ar
     8    5    9 1
     9   10   16 ar
    10   10   11 ar
    11    2   12 1
    12    6   13 1
    13   11   14 1
    14    3   15 ar
    15   16   22 1
    16    1   17 2
    17    5   18 2
    18   12   19 2
    19   13   20 1
    20   15   21 1
    21   22   27 1
    22   13   23 2
    23   12   24 1
    24   25   26 1
    25   21   26 1
    26   25   27 1
    27    8   28 ar
    28   29   31 ar
    29   25   30 1
    30   31   34 ar
    31   32   33 ar
    32   15   33 ar
    33   16   34 ar
    34    7    8 1
    35   28   32 ar
    36   11   29 ar
    37    6    9 2
    38    4   35 1
    39    9   36 1
    40   20   37 1
    41   24   38 1
    42   25   39 1
    43   26   40 1
    44   26   41 1
    45   27   42 1
    46   27   43 1
    47   28   44 1
    48   29   45 1
    49   30   46 1
    50   31   47 1
    51   32   48 1
    52   33   49 1
    53   34   50 1
@<TRIPOS>MOLECULE
1009
   33    34     0     0     0
SMALL
NO_CHARGES

@<TRIPOS>ATOM
      1 O1          1.6500   -2.4256    0.0000 OH        1 <0>         0.0000
      2 O2          3.0791    1.6995    0.0000 O         1 <0>         0.0000
      3 O3          3.0791   -2.4256    0.0000 O         1 <0>         0.0000
      4 C1          2.3645   -1.1880    0.0000 CT        1 <0>         0.0000
      5 C2          3.0791   -0.7755    0.0000 CA        1 <0>         0.0000
      6 C3          3.0791    0.0495    0.0000 CA        1 <0>         0.0000
      7 C4          3.7935    0.4620    0.0000 CA        1 <0>         0.0000
      8 C5          3.7935   -1.1880    0.0000 CA        1 <0>         0.0000
      9 C6          1.6500   -0.7755    0.0000 CT        1 <0>         0.0000
     10 C7          4.5080    0.0495    0.0000 CA        1 <0>         0.0000
     11 C8          4.5080   -0.7755    0.0000 CA        1 <0>         0.0000
     12 C9          3.7935    1.2870    0.0000 C         1 <0>         0.0000
     13 C10         2.3645   -2.0130    0.0000 C         1 <0>         0.0000
     14 C11         4.5080    1.6995    0.0000 CA        1 <0>         0.0000
     15 C12         4.5080    2.5246    0.0000 CA        1 <0>         0.0000
     16 C13         5.2224    1.2870    0.0000 CA        1 <0>         0.0000
     17 C14         5.2224    2.9371    0.0000 CA        1 <0>         0.0000
     18 C15         5.9370    1.6995    0.0000 CA        1 <0>         0.0000
     19 C16         5.9370    2.5246    0.0000 CA        1 <0>         0.0000
     20 H1          1.6500   -2.4256    0.0000 HO        1 <0>         0.0000
     21 H2          2.3645   -1.1880    0.0000 HC        1 <0>         0.0000
     22 H3          3.0791    0.0495    0.0000 HA        1 <0>         0.0000
     23 H4          3.7935   -1.1880    0.0000 HA        1 <0>         0.0000
     24 H5          1.6500   -0.7755    0.0000 HC        1 <0>         0.0000
     25 H6          1.6500   -0.7755    0.0000 HC        1 <0>         0.0000
     26 H7          1.6500   -0.7755    0.0000 HC        1 <0>         0.0000
     27 H8          4.5080    0.0495    0.0000 HA        1 <0>         0.0000
     28 H9          4.5080   -0.7755    0.0000 HA        1 <0>         0.0000
     29 H10         4.5080    2.5246    0.0000 HA        1 <0>         0.0000
     30 H11         5.2224    1.2870    0.0000 HA        1 <0>         0.0000
     31 H12         5.2224    2.9371    0.0000 HA        1 <0>         0.0000
     32 H13         5.9370    1.6995    0.0000 HA        1 <0>         0.0000
     33 H14         5.9370    2.5246    0.0000 HA        1 <0>         0.0000
@<TRIPOS>BOND
     1    1   13 1
     2    2   12 2
     3    3   13 2
     4    4    5 1
     5    4    9 1
     6    4   13 1
     7    5    6 ar
     8    5    8 ar
     9    6    7 ar
    10    7   10 ar
    11    7   12 1
    12    8   11 ar
    13   10   11 ar
    14   12   14 1
    15   14   15 ar
    16   14   16 ar
    17   15   17 ar
    18   16   18 ar
    19   17   19 ar
    20   18   19 ar
    21    1   20 1
    22    4   21 1
    23    6   22 1
    24    8   23 1
    25    9   24 1
    26    9   25 1
    27    9   26 1
    28   10   27 1
    29   11   28 1
    30   15   29 1
    31   16   30 1
    32   17   31 1
    33   18   32 1
    34   19   33 1
@<TRIPOS>MOLECULE
*****
   79    80     0     0     0
SMALL
NO_CHARGES

@<TRIPOS>ATOM
      1 C1          0.0000   -0.4125    0.0000 CB        1 <0>         0.0000
      2 C2          0.7145   -0.8250    0.0000 C         1 <0>         0.0000
      3 C3          0.0000    0.4125    0.0000 CB        1 <0>         0.0000
      4 C4          0.7145    0.8250    0.0000 C         1 <0>         0.0000
      5 C5         -0.7145    0.8250    0.0000 CA        1 <0>         0.0000
      6 C6         -0.7145   -0.8250    0.0000 CA        1 <0>         0.0000
      7 C7          1.4289    0.4125    0.0000 CA        1 <0>         0.0000
      8 C8         -1.4289    0.4125    0.0000 CA        1 <0>         0.0000
      9 C9          1.4289   -0.4125    0.0000 CA        1 <0>         0.0000
     10 C10        -1.4289   -0.4125    0.0000 CA        1 <0>         0.0000
     11 O1          0.7145    1.6500    0.0000 O         1 <0>         0.0000
     12 O2          0.7145   -1.6500    0.0000 O         1 <0>         0.0000
     13 C11         2.1434    0.8250    0.0000 CT        1 <0>         0.0000
     14 C12         3.5724    0.8250    0.0000 CM        1 <0>         0.0000
     15 C13         4.2868    0.4125    0.0000 CT        1 <0>         0.0000
     16 C14         3.5724    1.6500    0.0000 CT        1 <0>         0.0000
     17 C15         5.0013    0.8250    0.0000 CT        1 <0>         0.0000
     18 C16         5.7158    0.4125    0.0000 CT        1 <0>         0.0000
     19 C17         6.4302    0.8250    0.0000 CT        1 <0>         0.0000
     20 C18         7.1447    0.4125    0.0000 CT        1 <0>         0.0000
     21 C19         6.4302    1.6500    0.0000 CT        1 <0>         0.0000
     22 C20         7.8592    0.8250    0.0000 CT        1 <0>         0.0000
     23 C21         8.5737    0.4125    0.0000 CT        1 <0>         0.0000
     24 C22         9.2881    0.8250    0.0000 CT        1 <0>         0.0000
     25 C23        10.0026    0.4125    0.0000 CT        1 <0>         0.0000
     26 C24         9.2881    1.6500    0.0000 CT        1 <0>         0.0000
     27 C25        10.7171    0.8250    0.0000 CT        1 <0>         0.0000
     28 C26        11.4315    0.4125    0.0000 CT        1 <0>         0.0000
     29 C27        12.1460    0.8250    0.0000 CT        1 <0>         0.0000
     30 C28        12.1460    1.6500    0.0000 CT        1 <0>         0.0000
     31 C29        12.8605    0.4125    0.0000 CT        1 <0>         0.0000
     32 C30         2.8579    0.4125    0.0000 CM        1 <0>         0.0000
     33 C31         2.1434   -0.8250    0.0000 CT        1 <0>         0.0000
     34 H1         -0.7145    0.8250    0.0000 HA        1 <0>         0.0000
     35 H2         -0.7145   -0.8250    0.0000 HA        1 <0>         0.0000
     36 H3         -1.4289    0.4125    0.0000 HA        1 <0>         0.0000
     37 H4         -1.4289   -0.4125    0.0000 HA        1 <0>         0.0000
     38 H5          2.1434    0.8250    0.0000 HC        1 <0>         0.0000
     39 H6          2.1434    0.8250    0.0000 HC        1 <0>         0.0000
     40 H7          4.2868    0.4125    0.0000 HC        1 <0>         0.0000
     41 H8          4.2868    0.4125    0.0000 HC        1 <0>         0.0000
     42 H9          3.5724    1.6500    0.0000 HC        1 <0>         0.0000
     43 H10         3.5724    1.6500    0.0000 HC        1 <0>         0.0000
     44 H11         3.5724    1.6500    0.0000 HC        1 <0>         0.0000
     45 H12         5.0013    0.8250    0.0000 HC        1 <0>         0.0000
     46 H13         5.0013    0.8250    0.0000 HC        1 <0>         0.0000
     47 H14         5.7158    0.4125    0.0000 HC        1 <0>         0.0000
     48 H15         5.7158    0.4125    0.0000 HC        1 <0>         0.0000
     49 H16         6.4302    0.8250    0.0000 HC        1 <0>         0.0000
     50 H17         7.1447    0.4125    0.0000 HC        1 <0>         0.0000
     51 H18         7.1447    0.4125    0.0000 HC        1 <0>         0.0000
     52 H19         6.4302    1.6500    0.0000 HC        1 <0>         0.0000
     53 H20         6.4302    1.6500    0.0000 HC        1 <0>         0.0000
     54 H21         6.4302    1.6500    0.0000 HC        1 <0>         0.0000
     55 H22         7.8592    0.8250    0.0000 HC        1 <0>         0.0000
     56 H23         7.8592    0.8250    0.0000 HC        1 <0>         0.0000
     57 H24         8.5737    0.4125    0.0000 HC        1 <0>         0.0000
     58 H25         8.5737    0.4125    0.0000 HC        1 <0>         0.0000
     59 H26         9.2881    0.8250    0.0000 HC        1 <0>         0.0000
     60 H27        10.0026    0.4125    0.0000 HC        1 <0>         0.0000
     61 H28        10.0026    0.4125    0.0000 HC        1 <0>         0.0000
     62 H29         9.2881    1.6500    0.0000 HC        1 <0>         0.0000
     63 H30         9.2881    1.6500    0.0000 HC        1 <0>         0.0000
     64 H31         9.2881    1.6500    0.0000 HC        1 <0>         0.0000
     65 H32        10.7171    0.8250    0.0000 HC        1 <0>         0.0000
     66 H33        10.7171    0.8250    0.0000 HC        1 <0>         0.0000
     67 H34        11.4315    0.4125    0.0000 HC        1 <0>         0.0000
     68 H35        11.4315    0.4125    0.0000 HC        1 <0>         0.0000
     69 H36        12.1460    0.8250    0.0000 HC        1 <0>         0.0000
     70 H37        12.1460    1.6500    0.0000 HC        1 <0>         0.0000
     71 H38        12.1460    1.6500    0.0000 HC        1 <0>         0.0000
     72 H39        12.1460    1.6500    0.0000 HC        1 <0>         0.0000
     73 H40        12.8605    0.4125    0.0000 HC        1 <0>         0.0000
     74 H41        12.8605    0.4125    0.0000 HC        1 <0>         0.0000
     75 H42        12.8605    0.4125    0.0000 HC        1 <0>         0.0000
     76 H43         2.8579    0.4125    0.0000 HA        1 <0>         0.0000
     77 H44         2.1434   -0.8250    0.0000 HC        1 <0>         0.0000
     78 H45         2.1434   -0.8250    0.0000 HC        1 <0>         0.0000
     79 H46         2.1434   -0.8250    0.0000 HC        1 <0>         0.0000
@<TRIPOS>BOND
     1    1    2 1
     2    2   12 2
     3    1    3 ar
     4    3    4 1
     5    4   11 2
     6    3    5 ar
     7    1    6 ar
     8    4    7 1
     9    7   13 1
    10    5    8 ar
    11    7    9 2
    12    2    9 1
    13    9   33 1
    14    6   10 ar
    15    8   10 ar
    16   13   32 1
    17   14   32 2
    18   14   15 1
    19   14   16 1
    20   15   17 1
    21   17   18 1
    22   18   19 1
    23   19   20 1
    24   19   21 1
    25   20   22 1
    26   22   23 1
    27   23   24 1
    28   24   25 1
    29   24   26 1
    30   25   27 1
    31   27   28 1
    32   28   29 1
    33   29   30 1
    34   29   31 1
    35    5   34 1
    36    6   35 1
    37    8   36 1
    38   10   37 1
    39   13   38 1
    40   13   39 1
    41   15   40 1
    42   15   41 1
    43   16   42 1
    44   16   43 1
    45   16   44 1
    46   17   45 1
    47   17   46 1
    48   18   47 1
    49   18   48 1
    50   19   49 1
    51   20   50 1
    52   20   51 1
    53   21   52 1
    54   21   53 1
    55   21   54 1
    56   22   55 1
    57   22   56 1
    58   23   57 1
    59   23   58 1
    60   24   59 1
    61   25   60 1
    62   25   61 1
    63   26   62 1
    64   26   63 1
    65   26   64 1
    66   27   65 1
    67   27   66 1
    68   28   67 1
    69   28   68 1
    70   29   69 1
    71   30   70 1
    72   30   71 1
    73   30   72 1
    74   31   73 1
    75   31   74 1
    76   31   75 1
    77   32   76 1
    78   33   77 1
    79   33   78 1
    80   33   79 1
@<TRIPOS>MOLECULE
1024
   43    44     0     0     0
SMALL
NO_CHARGES

@<TRIPOS>ATOM
      1 O1          9.7855   -0.1279    0.0000 OS        1 <0>         0.0000
      2 O2          6.3799   -0.9529    0.0000 OS        1 <0>         0.0000
      3 O3          7.8089    1.5222    0.0000 OH        1 <0>         0.0000
      4 O4          9.5603    1.3203    0.0000 O         1 <0>         0.0000
      5 O5          2.0930    0.6971    0.0000 OH        1 <0>         0.0000
      6 O6          2.8075   -0.5404    0.0000 O         1 <0>         0.0000
      7 C1          8.5234   -0.5404    0.0000 CA        1 <0>         0.0000
      8 C2          7.0944    0.2846    0.0000 CA        1 <0>         0.0000
      9 C3          8.5234    0.2846    0.0000 CA        1 <0>         0.0000
     10 C4          7.8089   -0.9529    0.0000 CA        1 <0>         0.0000
     11 C5          7.0944   -0.5404    0.0000 CA        1 <0>         0.0000
     12 C6          7.8089    0.6971    0.0000 CA        1 <0>         0.0000
     13 C7          6.3799    0.6971    0.0000 CT        1 <0>         0.0000
     14 C8          9.3041   -0.7918    0.0000 CT        1 <0>         0.0000
     15 C9          9.3041    0.5360    0.0000 C         1 <0>         0.0000
     16 C10         5.6655    0.2846    0.0000 CM        1 <0>         0.0000
     17 C11         7.8089   -1.7779    0.0000 CT        1 <0>         0.0000
     18 C12         4.9509    0.6971    0.0000 CM        1 <0>         0.0000
     19 C13         4.2365    0.2846    0.0000 CT        1 <0>         0.0000
     20 C14         3.5220    0.6971    0.0000 CT        1 <0>         0.0000
     21 C15         4.9509    1.5222    0.0000 CT        1 <0>         0.0000
     22 C16         6.3799   -1.7779    0.0000 CT        1 <0>         0.0000
     23 C17         2.8075    0.2846    0.0000 C         1 <0>         0.0000
     24 H1          7.8089    1.5222    0.0000 HO        1 <0>         0.0000
     25 H2          2.0930    0.6971    0.0000 HO        1 <0>         0.0000
     26 H3          6.3799    0.6971    0.0000 HC        1 <0>         0.0000
     27 H4          6.3799    0.6971    0.0000 HC        1 <0>         0.0000
     28 H5          9.3041   -0.7918    0.0000 H1        1 <0>         0.0000
     29 H6          9.3041   -0.7918    0.0000 H1        1 <0>         0.0000
     30 H7          5.6655    0.2846    0.0000 HA        1 <0>         0.0000
     31 H8          7.8089   -1.7779    0.0000 HC        1 <0>         0.0000
     32 H9          7.8089   -1.7779    0.0000 HC        1 <0>         0.0000
     33 H10         7.8089   -1.7779    0.0000 HC        1 <0>         0.0000
     34 H11         4.2365    0.2846    0.0000 HC        1 <0>         0.0000
     35 H12         4.2365    0.2846    0.0000 HC        1 <0>         0.0000
     36 H13         3.5220    0.6971    0.0000 HC        1 <0>         0.0000
     37 H14         3.5220    0.6971    0.0000 HC        1 <0>         0.0000
     38 H15         4.9509    1.5222    0.0000 HC        1 <0>         0.0000
     39 H16         4.9509    1.5222    0.0000 HC        1 <0>         0.0000
     40 H17         4.9509    1.5222    0.0000 HC        1 <0>         0.0000
     41 H18         6.3799   -1.7779    0.0000 H1        1 <0>         0.0000
     42 H19         6.3799   -1.7779    0.0000 H1        1 <0>         0.0000
     43 H20         6.3799   -1.7779    0.0000 H1        1 <0>         0.0000
@<TRIPOS>BOND
     1    1   14 1
     2    1   15 1
     3    2   11 1
     4    2   22 1
     5    3   12 1
     6    4   15 2
     7    5   23 1
     8    6   23 2
     9    7    9 ar
    10    7   10 ar
    11    7   14 1
    12    8   11 ar
    13    8   12 ar
    14    8   13 1
    15    9   12 ar
    16    9   15 1
    17   10   11 ar
    18   10   17 1
    19   13   16 1
    20   16   18 2
    21   18   19 1
    22   18   21 1
    23   19   20 1
    24   20   23 1
    25    3   24 1
    26    5   25 1
    27   13   26 1
    28   13   27 1
    29   14   28 1
    30   14   29 1
    31   16   30 1
    32   17   31 1
    33   17   32 1
    34   17   33 1
    35   19   34 1
    36   19   35 1
    37   20   36 1
    38   20   37 1
    39   21   38 1
    40   21   39 1
    41   21   40 1
    42   22   41 1
    43   22   42 1
    44   22   43 1
@<TRIPOS>MOLECULE
1050
   33    33     0     0     0
SMALL
NO_CHARGES

@<TRIPOS>ATOM
      1 O1          3.7934    2.7596    0.0000 OH        1 <0>         0.0000
      2 O2          4.5079    1.5221    0.0000 O         1 <0>         0.0000
      3 C1          2.3645   -2.1904    0.0000 CT        1 <0>         0.0000
      4 C2          3.0790   -1.7779    0.0000 CT        1 <0>         0.0000
      5 C3          3.0790   -0.9529    0.0000 CA        1 <0>         0.0000
      6 C4          3.0790    0.6971    0.0000 CA        1 <0>         0.0000
      7 C5          3.0790    1.5221    0.0000 CT        1 <0>         0.0000
      8 C6          2.3645   -3.0154    0.0000 CT        1 <0>         0.0000
      9 C7          1.6500   -1.7779    0.0000 CT        1 <0>         0.0000
     10 C8          2.3645   -0.5404    0.0000 CA        1 <0>         0.0000
     11 C9          3.7934   -0.5404    0.0000 CA        1 <0>         0.0000
     12 C10         2.3645    0.2846    0.0000 CA        1 <0>         0.0000
     13 C11         3.7934    0.2846    0.0000 CA        1 <0>         0.0000
     14 C12         2.3645    1.9346    0.0000 CT        1 <0>         0.0000
     15 C13         3.7934    1.9346    0.0000 C         1 <0>         0.0000
     16 H1          3.7934    2.7596    0.0000 HO        1 <0>         0.0000
     17 H2          2.3645   -2.1904    0.0000 HC        1 <0>         0.0000
     18 H3          3.0790   -1.7779    0.0000 HC        1 <0>         0.0000
     19 H4          3.0790   -1.7779    0.0000 HC        1 <0>         0.0000
     20 H5          3.0790    1.5221    0.0000 HC        1 <0>         0.0000
     21 H6          2.3645   -3.0154    0.0000 HC        1 <0>         0.0000
     22 H7          2.3645   -3.0154    0.0000 HC        1 <0>         0.0000
     23 H8          2.3645   -3.0154    0.0000 HC        1 <0>         0.0000
     24 H9          1.6500   -1.7779    0.0000 HC        1 <0>         0.0000
     25 H10         1.6500   -1.7779    0.0000 HC        1 <0>         0.0000
     26 H11         1.6500   -1.7779    0.0000 HC        1 <0>         0.0000
     27 H12         2.3645   -0.5404    0.0000 HA        1 <0>         0.0000
     28 H13         3.7934   -0.5404    0.0000 HA        1 <0>         0.0000
     29 H14         2.3645    0.2846    0.0000 HA        1 <0>         0.0000
     30 H15         3.7934    0.2846    0.0000 HA        1 <0>         0.0000
     31 H16         2.3645    1.9346    0.0000 HC        1 <0>         0.0000
     32 H17         2.3645    1.9346    0.0000 HC        1 <0>         0.0000
     33 H18         2.3645    1.9346    0.0000 HC        1 <0>         0.0000
@<TRIPOS>BOND
     1    1   15 1
     2    2   15 2
     3    3    4 1
     4    3    8 1
     5    3    9 1
     6    4    5 1
     7    5   10 ar
     8    5   11 ar
     9    6    7 1
    10    6   12 ar
    11    6   13 ar
    12    7   14 1
    13    7   15 1
    14   10   12 ar
    15   11   13 ar
    16    1   16 1
    17    3   17 1
    18    4   18 1
    19    4   19 1
    20    7   20 1
    21    8   21 1
    22    8   22 1
    23    8   23 1
    24    9   24 1
    25    9   25 1
    26    9   26 1
    27   10   27 1
    28   11   28 1
    29   12   29 1
    30   13   30 1
    31   14   31 1
    32   14   32 1
    33   14   33 1
@<TRIPOS>MOLECULE
*****
   75    77     0     0     0
SMALL
NO_CHARGES

@<TRIPOS>ATOM
      1 C1          5.3485  -12.3100    0.0000 CT        1 <0>         0.0000
      2 C2          5.3485  -13.9599    0.0000 CM        1 <0>         0.0000
      3 C3          6.8476  -13.8024    0.0000 CT        1 <0>         0.0000
      4 C4          7.3325  -13.1350    0.0000 CT        1 <0>         0.0000
      5 C5          4.6340  -12.7225    0.0000 CT        1 <0>         0.0000
      6 C6          5.3485  -14.7849    0.0000 CM        1 <0>         0.0000
      7 C7          4.6340  -13.5475    0.0000 CT        1 <0>         0.0000
      8 C8          4.6340  -15.1974    0.0000 CM        1 <0>         0.0000
      9 C9          4.6340  -16.0224    0.0000 CM        1 <0>         0.0000
     10 C10         5.3485  -16.4349    0.0000 CT        1 <0>         0.0000
     11 C11         3.9197  -16.4349    0.0000 CT        1 <0>         0.0000
     12 C12         5.3485  -17.2599    0.0000 CT        1 <0>         0.0000
     13 C13         3.9197  -17.2599    0.0000 CT        1 <0>         0.0000
     14 C14         4.6340  -17.6724    0.0000 CT        1 <0>         0.0000
     15 C15         6.1331  -11.2300    0.0000 CT        1 <0>         0.0000
     16 C16         6.8476  -11.6425    0.0000 CT        1 <0>         0.0000
     17 C17         7.5620  -11.2300    0.0000 CM        1 <0>         0.0000
     18 C18         8.2764  -11.6425    0.0000 CM        1 <0>         0.0000
     19 C19        10.4199  -11.2300    0.0000 CT        1 <0>         0.0000
     20 C20         9.7054  -11.6425    0.0000 CT        1 <0>         0.0000
     21 C21         9.7054  -12.4675    0.0000 CT        1 <0>         0.0000
     22 C22         8.9909  -11.2300    0.0000 CT        1 <0>         0.0000
     23 C23         6.8476  -12.4675    0.0000 CT        1 <0>         0.0000
     24 C24         6.0630  -13.5475    0.0000 CT        1 <0>         0.0000
     25 C25         6.0630  -12.7225    0.0000 CT        1 <0>         0.0000
     26 C26         6.0630  -11.8975    0.0000 CT        1 <0>         0.0000
     27 C27         8.9909  -10.4050    0.0000 CT        1 <0>         0.0000
     28 H1          7.6437  -12.0570    0.0000 HC        1 <0>         0.0000
     29 C28         3.2051  -16.0224    0.0000 CT        1 <0>         0.0000
     30 O1          6.0630  -17.6724    0.0000 OH        1 <0>         0.0000
     31 H2          6.0630  -14.3725    0.0000 HC        1 <0>         0.0000
     32 H3          5.3485  -12.3100    0.0000 HC        1 <0>         0.0000
     33 H4          5.3485  -12.3100    0.0000 HC        1 <0>         0.0000
     34 H5          6.8476  -13.8024    0.0000 HC        1 <0>         0.0000
     35 H6          6.8476  -13.8024    0.0000 HC        1 <0>         0.0000
     36 H7          7.3325  -13.1350    0.0000 HC        1 <0>         0.0000
     37 H8          7.3325  -13.1350    0.0000 HC        1 <0>         0.0000
     38 H9          4.6340  -12.7225    0.0000 HC        1 <0>         0.0000
     39 H10         4.6340  -12.7225    0.0000 HC        1 <0>         0.0000
     40 H11         5.3485  -14.7849    0.0000 HA        1 <0>         0.0000
     41 H12         4.6340  -13.5475    0.0000 HC        1 <0>         0.0000
     42 H13         4.6340  -13.5475    0.0000 HC        1 <0>         0.0000
     43 H14         4.6340  -15.1974    0.0000 HA        1 <0>         0.0000
     44 H15         5.3485  -16.4349    0.0000 HC        1 <0>         0.0000
     45 H16         5.3485  -16.4349    0.0000 HC        1 <0>         0.0000
     46 H17         3.9197  -16.4349    0.0000 HC        1 <0>         0.0000
     47 H18         5.3485  -17.2599    0.0000 H1        1 <0>         0.0000
     48 H19         3.9197  -17.2599    0.0000 HC        1 <0>         0.0000
     49 H20         3.9197  -17.2599    0.0000 HC        1 <0>         0.0000
     50 H21         4.6340  -17.6724    0.0000 HC        1 <0>         0.0000
     51 H22         4.6340  -17.6724    0.0000 HC        1 <0>         0.0000
     52 H23         6.1331  -11.2300    0.0000 HC        1 <0>         0.0000
     53 H24         6.1331  -11.2300    0.0000 HC        1 <0>         0.0000
     54 H25         6.1331  -11.2300    0.0000 HC        1 <0>         0.0000
     55 H26         6.8476  -11.6425    0.0000 HC        1 <0>         0.0000
     56 H27         7.5620  -11.2300    0.0000 HA        1 <0>         0.0000
     57 H28         8.2764  -11.6425    0.0000 HA        1 <0>         0.0000
     58 H29        10.4199  -11.2300    0.0000 HC        1 <0>         0.0000
     59 H30        10.4199  -11.2300    0.0000 HC        1 <0>         0.0000
     60 H31        10.4199  -11.2300    0.0000 HC        1 <0>         0.0000
     61 H32         9.7054  -11.6425    0.0000 HC        1 <0>         0.0000
     62 H33         9.7054  -12.4675    0.0000 HC        1 <0>         0.0000
     63 H34         9.7054  -12.4675    0.0000 HC        1 <0>         0.0000
     64 H35         9.7054  -12.4675    0.0000 HC        1 <0>         0.0000
     65 H36         8.9909  -11.2300    0.0000 HC        1 <0>         0.0000
     66 H37         6.0630  -11.8975    0.0000 HC        1 <0>         0.0000
     67 H38         6.0630  -11.8975    0.0000 HC        1 <0>         0.0000
     68 H39         6.0630  -11.8975    0.0000 HC        1 <0>         0.0000
     69 H40         8.9909  -10.4050    0.0000 HC        1 <0>         0.0000
     70 H41         8.9909  -10.4050    0.0000 HC        1 <0>         0.0000
     71 H42         8.9909  -10.4050    0.0000 HC        1 <0>         0.0000
     72 H43         3.2051  -16.0224    0.0000 HC        1 <0>         0.0000
     73 H44         3.2051  -16.0224    0.0000 HC        1 <0>         0.0000
     74 H45         3.2051  -16.0224    0.0000 HC        1 <0>         0.0000
     75 H46         6.0630  -17.6724    0.0000 HO        1 <0>         0.0000
@<TRIPOS>BOND
     1   24   25 1
     2   23   25 1
     3    1   25 1
     4    2   24 1
     5    3   24 1
     6    4   23 1
     7    1    5 1
     8    2    6 2
     9    2    7 1
    10    6    8 1
    11    8    9 2
    12    9   10 1
    13    9   11 1
    14   10   12 1
    15   11   13 1
    16   12   14 1
    17    3    4 1
    18    5    7 1
    19   13   14 1
    20   16   23 1
    21   15   16 1
    22   16   17 1
    23   17   18 2
    24   18   22 1
    25   20   22 1
    26   19   20 1
    27   20   21 1
    28   25   26 1
    29   22   27 1
    30   23   28 1
    31   11   29 1
    32   12   30 1
    33   24   31 1
    34    1   32 1
    35    1   33 1
    36    3   34 1
    37    3   35 1
    38    4   36 1
    39    4   37 1
    40    5   38 1
    41    5   39 1
    42    6   40 1
    43    7   41 1
    44    7   42 1
    45    8   43 1
    46   10   44 1
    47   10   45 1
    48   11   46 1
    49   12   47 1
    50   13   48 1
    51   13   49 1
    52   14   50 1
    53   14   51 1
    54   15   52 1
    55   15   53 1
    56   15   54 1
    57   16   55 1
    58   17   56 1
    59   18   57 1
    60   19   58 1
    61   19   59 1
    62   19   60 1
    63   20   61 1
    64   21   62 1
    65   21   63 1
    66   21   64 1
    67   22   65 1
    68   26   66 1
    69   26   67 1
    70   26   68 1
    71   27   69 1
    72   27   70 1
    73   27   71 1
    74   29   72 1
    75   29   73 1
    76   29   74 1
    77   30   75 1
@<TRIPOS>MOLECULE
*****
  140   148     0     0     0
SMALL
NO_CHARGES

@<TRIPOS>ATOM
      1 C1         11.7501  -10.4231    0.0000 CT        1 <0>         0.0000
      2 C2         11.7535   -9.5952    0.0000 CT        1 <0>         0.0000
      3 C3         11.0394   -9.1789    0.0000 CT        1 <0>         0.0000
      4 C4         10.3219   -9.5893    0.0000 CT        1 <0>         0.0000
      5 C5         10.3185  -10.4171    0.0000 CT        1 <0>         0.0000
      6 O1         11.0325  -10.8334    0.0000 OS        1 <0>         0.0000
      7 O2         11.0428   -8.3556    0.0000 OH        1 <0>         0.0000
      8 O3          9.6072   -9.1727    0.0000 OS        1 <0>         0.0000
      9 C6          9.5984  -10.8289    0.0000 CT        1 <0>         0.0000
     10 C7         14.6157   -9.5952    0.0000 CT        1 <0>         0.0000
     11 O4         13.9131   -9.1818    0.0000 OS        1 <0>         0.0000
     12 C8         13.1692   -9.5952    0.0000 CT        1 <0>         0.0000
     13 C9         13.1692  -10.4218    0.0000 CT        1 <0>         0.0000
     14 C10        13.8718  -10.8350    0.0000 CT        1 <0>         0.0000
     15 C11        14.6157  -10.4218    0.0000 CT        1 <0>         0.0000
     16 C12        22.3855   -9.2231    0.0000 CT        1 <0>         0.0000
     17 C13        21.6829   -9.6365    0.0000 CT        1 <0>         0.0000
     18 C14        22.3855   -8.3967    0.0000 CT        1 <0>         0.0000
     19 C15        20.9803   -9.2231    0.0000 CT        1 <0>         0.0000
     20 C16        21.6829  -10.4218    0.0000 CT        1 <0>         0.0000
     21 C17        21.6829   -8.0246    0.0000 CT        1 <0>         0.0000
     22 C18        22.3442   -7.6940    0.0000 CT        1 <0>         0.0000
     23 C19        20.2778   -9.5952    0.0000 CT        1 <0>         0.0000
     24 C20        20.9803   -8.3967    0.0000 CT        1 <0>         0.0000
     25 C21        20.9803  -10.8350    0.0000 CT        1 <0>         0.0000
     26 C22        20.2778  -10.4218    0.0000 CT        1 <0>         0.0000
     27 C23        19.5751   -9.2231    0.0000 CT        1 <0>         0.0000
     28 C24        20.2778   -8.8512    0.0000 CT        1 <0>         0.0000
     29 C25        19.5751  -10.8350    0.0000 CT        1 <0>         0.0000
     30 C26        18.8725   -9.5952    0.0000 CT        1 <0>         0.0000
     31 C27        18.8725  -10.4218    0.0000 CT        1 <0>         0.0000
     32 O5         21.6829   -7.1980    0.0000 OH        1 <0>         0.0000
     33 C28        23.1294   -9.4712    0.0000 CT        1 <0>         0.0000
     34 C29        23.6252   -8.8512    0.0000 CT        1 <0>         0.0000
     35 C30        23.1708   -8.1899    0.0000 CT        1 <0>         0.0000
     36 C31        23.4186   -7.4048    0.0000 CM        1 <0>         0.0000
     37 C32        24.2039   -7.1567    0.0000 CM        1 <0>         0.0000
     38 C33        24.2039   -6.3302    0.0000 C         1 <0>         0.0000
     39 O6         23.4186   -6.0409    0.0000 OS        1 <0>         0.0000
     40 C34        22.9227   -6.7435    0.0000 CT        1 <0>         0.0000
     41 O7         24.8652   -5.8342    0.0000 O         1 <0>         0.0000
     42 O8         18.1700  -10.8350    0.0000 OS        1 <0>         0.0000
     43 C35        17.4674  -10.4218    0.0000 CT        1 <0>         0.0000
     44 C36        17.4674   -9.5952    0.0000 CT        1 <0>         0.0000
     45 C37        16.7234   -9.1818    0.0000 CT        1 <0>         0.0000
     46 C38        16.0209   -9.5952    0.0000 CT        1 <0>         0.0000
     47 C39        16.0209  -10.4218    0.0000 CT        1 <0>         0.0000
     48 O9         16.7234  -10.8350    0.0000 OS        1 <0>         0.0000
     49 O10        16.7234   -8.3553    0.0000 OH        1 <0>         0.0000
     50 O11        15.3183   -9.1818    0.0000 OS        1 <0>         0.0000
     51 C40        15.3183  -10.8350    0.0000 CT        1 <0>         0.0000
     52 C41        12.4568   -9.1759    0.0000 CT        1 <0>         0.0000
     53 O12        12.4518  -10.8321    0.0000 OS        1 <0>         0.0000
     54 O13        13.8617  -11.6615    0.0000 OH        1 <0>         0.0000
     55 C42         9.6072   -8.3462    0.0000 CT        1 <0>         0.0000
     56 O14        10.3248   -7.9317    0.0000 OS        1 <0>         0.0000
     57 C43        10.3248   -7.1052    0.0000 CT        1 <0>         0.0000
     58 C44         9.6089   -6.6919    0.0000 CT        1 <0>         0.0000
     59 C45         8.8914   -7.1063    0.0000 CT        1 <0>         0.0000
     60 C46         8.8914   -7.9328    0.0000 CT        1 <0>         0.0000
     61 O15         8.1647   -6.6865    0.0000 OH        1 <0>         0.0000
     62 C47        11.0308   -6.6977    0.0000 CT        1 <0>         0.0000
     63 O16         8.1565   -8.3572    0.0000 OH        1 <0>         0.0000
     64 O17         9.6090   -5.8756    0.0000 OH        1 <0>         0.0000
     65 O18        11.7405   -7.1075    0.0000 OH        1 <0>         0.0000
     66 O19        22.3855  -10.0497    0.0000 OH        1 <0>         0.0000
     67 H1         11.7501  -10.4231    0.0000 H2        1 <0>         0.0000
     68 H2         11.7535   -9.5952    0.0000 HC        1 <0>         0.0000
     69 H3         11.7535   -9.5952    0.0000 HC        1 <0>         0.0000
     70 H4         11.0394   -9.1789    0.0000 H1        1 <0>         0.0000
     71 H5         10.3219   -9.5893    0.0000 H1        1 <0>         0.0000
     72 H6         10.3185  -10.4171    0.0000 H1        1 <0>         0.0000
     73 H7         11.0428   -8.3556    0.0000 HO        1 <0>         0.0000
     74 H8          9.5984  -10.8289    0.0000 HC        1 <0>         0.0000
     75 H9          9.5984  -10.8289    0.0000 HC        1 <0>         0.0000
     76 H10         9.5984  -10.8289    0.0000 HC        1 <0>         0.0000
     77 H11        14.6157   -9.5952    0.0000 H2        1 <0>         0.0000
     78 H12        13.1692   -9.5952    0.0000 H1        1 <0>         0.0000
     79 H13        13.1692  -10.4218    0.0000 H1        1 <0>         0.0000
     80 H14        13.8718  -10.8350    0.0000 H1        1 <0>         0.0000
     81 H15        14.6157  -10.4218    0.0000 HC        1 <0>         0.0000
     82 H16        14.6157  -10.4218    0.0000 HC        1 <0>         0.0000
     83 H17        21.6829   -9.6365    0.0000 HC        1 <0>         0.0000
     84 H18        20.9803   -9.2231    0.0000 HC        1 <0>         0.0000
     85 H19        21.6829  -10.4218    0.0000 HC        1 <0>         0.0000
     86 H20        21.6829  -10.4218    0.0000 HC        1 <0>         0.0000
     87 H21        21.6829   -8.0246    0.0000 H1        1 <0>         0.0000
     88 H22        22.3442   -7.6940    0.0000 HC        1 <0>         0.0000
     89 H23        22.3442   -7.6940    0.0000 HC        1 <0>         0.0000
     90 H24        22.3442   -7.6940    0.0000 HC        1 <0>         0.0000
     91 H25        20.9803   -8.3967    0.0000 HC        1 <0>         0.0000
     92 H26        20.9803   -8.3967    0.0000 HC        1 <0>         0.0000
     93 H27        20.9803  -10.8350    0.0000 HC        1 <0>         0.0000
     94 H28        20.9803  -10.8350    0.0000 HC        1 <0>         0.0000
     95 H29        20.2778  -10.4218    0.0000 HC        1 <0>         0.0000
     96 H30        19.5751   -9.2231    0.0000 HC        1 <0>         0.0000
     97 H31        19.5751   -9.2231    0.0000 HC        1 <0>         0.0000
     98 H32        20.2778   -8.8512    0.0000 HC        1 <0>         0.0000
     99 H33        20.2778   -8.8512    0.0000 HC        1 <0>         0.0000
    100 H34        20.2778   -8.8512    0.0000 HC        1 <0>         0.0000
    101 H35        19.5751  -10.8350    0.0000 HC        1 <0>         0.0000
    102 H36        19.5751  -10.8350    0.0000 HC        1 <0>         0.0000
    103 H37        18.8725   -9.5952    0.0000 HC        1 <0>         0.0000
    104 H38        18.8725   -9.5952    0.0000 HC        1 <0>         0.0000
    105 H39        18.8725  -10.4218    0.0000 H1        1 <0>         0.0000
    106 H40        21.6829   -7.1980    0.0000 HO        1 <0>         0.0000
    107 H41        23.1294   -9.4712    0.0000 HC        1 <0>         0.0000
    108 H42        23.1294   -9.4712    0.0000 HC        1 <0>         0.0000
    109 H43        23.6252   -8.8512    0.0000 HC        1 <0>         0.0000
    110 H44        23.6252   -8.8512    0.0000 HC        1 <0>         0.0000
    111 H45        23.1708   -8.1899    0.0000 HC        1 <0>         0.0000
    112 H46        24.2039   -7.1567    0.0000 HA        1 <0>         0.0000
    113 H47        22.9227   -6.7435    0.0000 H1        1 <0>         0.0000
    114 H48        22.9227   -6.7435    0.0000 H1        1 <0>         0.0000
    115 H49        17.4674  -10.4218    0.0000 H2        1 <0>         0.0000
    116 H50        17.4674   -9.5952    0.0000 HC        1 <0>         0.0000
    117 H51        17.4674   -9.5952    0.0000 HC        1 <0>         0.0000
    118 H52        16.7234   -9.1818    0.0000 H1        1 <0>         0.0000
    119 H53        16.0209   -9.5952    0.0000 H1        1 <0>         0.0000
    120 H54        16.0209  -10.4218    0.0000 H1        1 <0>         0.0000
    121 H55        16.7234   -8.3553    0.0000 HO        1 <0>         0.0000
    122 H56        15.3183  -10.8350    0.0000 HC        1 <0>         0.0000
    123 H57        15.3183  -10.8350    0.0000 HC        1 <0>         0.0000
    124 H58        15.3183  -10.8350    0.0000 HC        1 <0>         0.0000
    125 H59        12.4568   -9.1759    0.0000 HC        1 <0>         0.0000
    126 H60        12.4568   -9.1759    0.0000 HC        1 <0>         0.0000
    127 H61        12.4568   -9.1759    0.0000 HC        1 <0>         0.0000
    128 H62        13.8617  -11.6615    0.0000 HO        1 <0>         0.0000
    129 H63         9.6072   -8.3462    0.0000 H2        1 <0>         0.0000
    130 H64        10.3248   -7.1052    0.0000 H1        1 <0>         0.0000
    131 H65         9.6089   -6.6919    0.0000 H1        1 <0>         0.0000
    132 H66         8.8914   -7.1063    0.0000 H1        1 <0>         0.0000
    133 H67         8.8914   -7.9328    0.0000 H1        1 <0>         0.0000
    134 H68         8.1647   -6.6865    0.0000 HO        1 <0>         0.0000
    135 H69        11.0308   -6.6977    0.0000 H1        1 <0>         0.0000
    136 H70        11.0308   -6.6977    0.0000 H1        1 <0>         0.0000
    137 H71         8.1565   -8.3572    0.0000 HO        1 <0>         0.0000
    138 H72         9.6090   -5.8756    0.0000 HO        1 <0>         0.0000
    139 H73        11.7405   -7.1075    0.0000 HO        1 <0>         0.0000
    140 H74        22.3855  -10.0497    0.0000 HO        1 <0>         0.0000
@<TRIPOS>BOND
     1    1    2 1
     2    2    3 1
     3    3    4 1
     4    4    5 1
     5    5    6 1
     6    1    6 1
     7    3    7 1
     8    4    8 1
     9    5    9 1
    10   10   11 1
    11   11   12 1
    12   12   13 1
    13   13   14 1
    14   14   15 1
    15   10   15 1
    16   16   17 1
    17   16   18 1
    18   17   19 1
    19   17   20 1
    20   18   21 1
    21   18   22 1
    22   19   23 1
    23   19   24 1
    24   20   25 1
    25   23   26 1
    26   23   27 1
    27   23   28 1
    28   26   29 1
    29   27   30 1
    30   29   31 1
    31   21   24 1
    32   25   26 1
    33   30   31 1
    34   21   32 1
    35   16   33 1
    36   33   34 1
    37   34   35 1
    38   18   35 1
    39   35   36 1
    40   36   37 2
    41   37   38 1
    42   38   39 1
    43   39   40 1
    44   36   40 1
    45   38   41 2
    46   42   43 1
    47   43   44 1
    48   44   45 1
    49   45   46 1
    50   46   47 1
    51   47   48 1
    52   43   48 1
    53   31   42 1
    54   45   49 1
    55   46   50 1
    56   47   51 1
    57   10   50 1
    58   12   52 1
    59   13   53 1
    60   14   54 1
    61    1   53 1
    62    8   55 1
    63   55   56 1
    64   56   57 1
    65   57   58 1
    66   58   59 1
    67   59   60 1
    68   55   60 1
    69   59   61 1
    70   57   62 1
    71   60   63 1
    72   58   64 1
    73   62   65 1
    74   16   66 1
    75    1   67 1
    76    2   68 1
    77    2   69 1
    78    3   70 1
    79    4   71 1
    80    5   72 1
    81    7   73 1
    82    9   74 1
    83    9   75 1
    84    9   76 1
    85   10   77 1
    86   12   78 1
    87   13   79 1
    88   14   80 1
    89   15   81 1
    90   15   82 1
    91   17   83 1
    92   19   84 1
    93   20   85 1
    94   20   86 1
    95   21   87 1
    96   22   88 1
    97   22   89 1
    98   22   90 1
    99   24   91 1
   100   24   92 1
   101   25   93 1
   102   25   94 1
   103   26   95 1
   104   27   96 1
   105   27   97 1
   106   28   98 1
   107   28   99 1
   108   28  100 1
   109   29  101 1
   110   29  102 1
   111   30  103 1
   112   30  104 1
   113   31  105 1
   114   32  106 1
   115   33  107 1
   116   33  108 1
   117   34  109 1
   118   34  110 1
   119   35  111 1
   120   37  112 1
   121   40  113 1
   122   40  114 1
   123   43  115 1
   124   44  116 1
   125   44  117 1
   126   45  118 1
   127   46  119 1
   128   47  120 1
   129   49  121 1
   130   51  122 1
   131   51  123 1
   132   51  124 1
   133   52  125 1
   134   52  126 1
   135   52  127 1
   136   54  128 1
   137   55  129 1
   138   57  130 1
   139   58  131 1
   140   59  132 1
   141   60  133 1
   142   61  134 1
   143   62  135 1
   144   62  136 1
   145   63  137 1
   146   64  138 1
   147   65  139 1
   148   66  140 1
@<TRIPOS>MOLECULE
*****
   58    59     0     0     0
SMALL
NO_CHARGES

@<TRIPOS>ATOM
      1 O1         -1.8005   -0.8684    0.0000 OH        1 <0>         0.0000
      2 O2         -1.2498    2.1606    0.0000 OH        1 <0>         0.0000
      3 O3          5.2958   -3.0185    0.0000 OH        1 <0>         0.0000
      4 O4          5.2958   -1.5887    0.0000 O         1 <0>         0.0000
      5 C1          0.3071   -0.4554    0.0000 CT        1 <0>         0.0000
      6 C2          0.3071   -1.2815    0.0000 CT        1 <0>         0.0000
      7 C3         -0.4766   -0.2012    0.0000 CT        1 <0>         0.0000
      8 C4         -0.4766   -1.5358    0.0000 CT        1 <0>         0.0000
      9 C5         -0.9638   -0.8684    0.0000 CT        1 <0>         0.0000
     10 C6          1.0909   -0.2012    0.0000 CT        1 <0>         0.0000
     11 C7          1.0909   -1.5358    0.0000 CT        1 <0>         0.0000
     12 C8          1.5675   -0.8684    0.0000 CM        1 <0>         0.0000
     13 C9         -0.7414    0.5931    0.0000 CM        1 <0>         0.0000
     14 C10         2.4042   -0.8684    0.0000 CM        1 <0>         0.0000
     15 C11        -1.5463    0.7626    0.0000 CM        1 <0>         0.0000
     16 C12         2.8173   -1.5887    0.0000 CT        1 <0>         0.0000
     17 C13        -1.8005    1.5463    0.0000 CT        1 <0>         0.0000
     18 C14         3.6435   -1.5887    0.0000 CT        1 <0>         0.0000
     19 C15        -2.6161    1.7158    0.0000 CT        1 <0>         0.0000
     20 C16         4.0565   -2.2983    0.0000 CT        1 <0>         0.0000
     21 C17        -2.8702    2.5101    0.0000 CT        1 <0>         0.0000
     22 C18        -3.1668    1.1015    0.0000 CT        1 <0>         0.0000
     23 C19         4.8827   -2.2983    0.0000 C         1 <0>         0.0000
     24 C20        -3.6753    2.6797    0.0000 C2        1 <0>         0.0000
     25 C21        -4.4908    2.8490    0.0000 C2        1 <0>         0.0000
     26 C22        -5.2958    3.0185    0.0000 CT        1 <0>         0.0000
     27 H1          0.3071    0.2436    0.0000 HC        1 <0>         0.0000
     28 H2          0.3071   -1.9806    0.0000 HC        1 <0>         0.0000
     29 H3         -1.8005   -0.8684    0.0000 HO        1 <0>         0.0000
     30 H4         -1.2498    2.1606    0.0000 HO        1 <0>         0.0000
     31 H5          5.2958   -3.0185    0.0000 HO        1 <0>         0.0000
     32 H6         -0.4766   -0.2012    0.0000 HC        1 <0>         0.0000
     33 H7         -0.4766   -1.5358    0.0000 HC        1 <0>         0.0000
     34 H8         -0.4766   -1.5358    0.0000 HC        1 <0>         0.0000
     35 H9         -0.9638   -0.8684    0.0000 H1        1 <0>         0.0000
     36 H10         1.0909   -0.2012    0.0000 HC        1 <0>         0.0000
     37 H11         1.0909   -0.2012    0.0000 HC        1 <0>         0.0000
     38 H12         1.0909   -1.5358    0.0000 HC        1 <0>         0.0000
     39 H13         1.0909   -1.5358    0.0000 HC        1 <0>         0.0000
     40 H14        -0.7414    0.5931    0.0000 HA        1 <0>         0.0000
     41 H15         2.4042   -0.8684    0.0000 HA        1 <0>         0.0000
     42 H16        -1.5463    0.7626    0.0000 HA        1 <0>         0.0000
     43 H17         2.8173   -1.5887    0.0000 HC        1 <0>         0.0000
     44 H18         2.8173   -1.5887    0.0000 HC        1 <0>         0.0000
     45 H19        -1.8005    1.5463    0.0000 H1        1 <0>         0.0000
     46 H20         3.6435   -1.5887    0.0000 HC        1 <0>         0.0000
     47 H21         3.6435   -1.5887    0.0000 HC        1 <0>         0.0000
     48 H22        -2.6161    1.7158    0.0000 HC        1 <0>         0.0000
     49 H23         4.0565   -2.2983    0.0000 HC        1 <0>         0.0000
     50 H24         4.0565   -2.2983    0.0000 HC        1 <0>         0.0000
     51 H25        -2.8702    2.5101    0.0000 HC        1 <0>         0.0000
     52 H26        -2.8702    2.5101    0.0000 HC        1 <0>         0.0000
     53 H27        -3.1668    1.1015    0.0000 HC        1 <0>         0.0000
     54 H28        -3.1668    1.1015    0.0000 HC        1 <0>         0.0000
     55 H29        -3.1668    1.1015    0.0000 HC        1 <0>         0.0000
     56 H30        -5.2958    3.0185    0.0000 HC        1 <0>         0.0000
     57 H31        -5.2958    3.0185    0.0000 HC        1 <0>         0.0000
     58 H32        -5.2958    3.0185    0.0000 HC        1 <0>         0.0000
@<TRIPOS>BOND
     1    1    9 1
     2    2   17 1
     3    3   23 1
     4    4   23 2
     5    5    6 1
     6    5    7 1
     7    5   10 1
     8    5   27 1
     9    6    8 1
    10    6   11 1
    11    6   28 1
    12    7    9 1
    13    7   13 1
    14    8    9 1
    15   10   12 1
    16   11   12 1
    17   12   14 2
    18   13   15 2
    19   14   16 1
    20   15   17 1
    21   16   18 1
    22   17   19 1
    23   18   20 1
    24   19   21 1
    25   19   22 1
    26   20   23 1
    27   21   24 1
    28   24   25 3
    29   25   26 1
    30    1   29 1
    31    2   30 1
    32    3   31 1
    33    7   32 1
    34    8   33 1
    35    8   34 1
    36    9   35 1
    37   10   36 1
    38   10   37 1
    39   11   38 1
    40   11   39 1
    41   13   40 1
    42   14   41 1
    43   15   42 1
    44   16   43 1
    45   16   44 1
    46   17   45 1
    47   18   46 1
    48   18   47 1
    49   19   48 1
    50   20   49 1
    51   20   50 1
    52   21   51 1
    53   21   52 1
    54   22   53 1
    55   22   54 1
    56   22   55 1
    57   26   56 1
    58   26   57 1
    59   26   58 1
@<TRIPOS>MOLECULE
1092
   85    90     0     0     0
SMALL
NO_CHARGES

@<TRIPOS>ATOM
      1 O1          9.3991   -1.1531    0.0000 OH        1 <0>         0.0000
      2 O2          7.2065   -2.4305    0.0000 OH        1 <0>         0.0000
      3 O3          7.2557    0.9094    0.0000 OH        1 <0>         0.0000
      4 O4          5.9368    0.3612    0.0000 OH        1 <0>         0.0000
      5 O5          6.5145    0.4967    0.0000 OH        1 <0>         0.0000
      6 O6          4.9498   -2.0213    0.0000 OS        1 <0>         0.0000
      7 O7         10.4384    2.8674    0.0000 OS        1 <0>         0.0000
      8 O8          4.2402   -0.7810    0.0000 OS        1 <0>         0.0000
      9 O9         11.8908    3.0948    0.0000 O         1 <0>         0.0000
     10 O10         3.5177   -2.8408    0.0000 OH        1 <0>         0.0000
     11 O11         2.0920   -2.0103    0.0000 OH        1 <0>         0.0000
     12 O12         2.0983   -0.3603    0.0000 OH        1 <0>         0.0000
     13 C1          7.9702   -0.3281    0.0000 CT        1 <0>         0.0000
     14 C2          8.6847   -0.7406    0.0000 CT        1 <0>         0.0000
     15 C3          9.3991   -0.3281    0.0000 CT        1 <0>         0.0000
     16 C4          9.3991    0.4969    0.0000 CT        1 <0>         0.0000
     17 C5          7.2194   -0.7463    0.0000 CT        1 <0>         0.0000
     18 C6          7.2128   -1.6056    0.0000 CT        1 <0>         0.0000
     19 C7          7.9702    0.4969    0.0000 CT        1 <0>         0.0000
     20 C8          8.6847    0.9094    0.0000 CT        1 <0>         0.0000
     21 C9         10.1798    0.7483    0.0000 CT        1 <0>         0.0000
     22 C10         8.6979   -1.5998    0.0000 CT        1 <0>         0.0000
     23 C11        10.1798   -0.5795    0.0000 CT        1 <0>         0.0000
     24 C12         7.9570   -2.0353    0.0000 CT        1 <0>         0.0000
     25 C13         6.4548   -0.2809    0.0000 CT        1 <0>         0.0000
     26 C14        10.6612    0.0844    0.0000 CT        1 <0>         0.0000
     27 C15         6.4411   -2.0591    0.0000 CT        1 <0>         0.0000
     28 C16         7.2258    0.0787    0.0000 CT        1 <0>         0.0000
     29 C17         9.3991    1.3219    0.0000 CT        1 <0>         0.0000
     30 C18         5.6728   -0.7164    0.0000 CT        1 <0>         0.0000
     31 C19         5.6659   -1.6116    0.0000 CT        1 <0>         0.0000
     32 C20        10.4361    1.5324    0.0000 CM        1 <0>         0.0000
     33 C21         9.9523    2.2008    0.0000 CT        1 <0>         0.0000
     34 C22        11.2212    1.7860    0.0000 CM        1 <0>         0.0000
     35 C23         4.2370   -1.6060    0.0000 CT        1 <0>         0.0000
     36 C24        11.2226    2.6110    0.0000 C         1 <0>         0.0000
     37 C25         3.5209   -2.0158    0.0000 CT        1 <0>         0.0000
     38 C26         2.8081   -1.6005    0.0000 CT        1 <0>         0.0000
     39 C27         3.5273   -0.3658    0.0000 CT        1 <0>         0.0000
     40 C28         2.8112   -0.7755    0.0000 CT        1 <0>         0.0000
     41 C29         3.5304    0.4592    0.0000 CT        1 <0>         0.0000
     42 H1          8.5418    0.0019    0.0000 HC        1 <0>         0.0000
     43 H2          9.2588   -1.0662    0.0000 HC        1 <0>         0.0000
     44 H3          9.3991   -1.1531    0.0000 HO        1 <0>         0.0000
     45 H4          7.2065   -2.4305    0.0000 HO        1 <0>         0.0000
     46 H5          7.2557    0.9094    0.0000 HO        1 <0>         0.0000
     47 H6          5.9368    0.3612    0.0000 HO        1 <0>         0.0000
     48 H7          6.5145    0.4967    0.0000 HO        1 <0>         0.0000
     49 H8          3.5177   -2.8408    0.0000 HO        1 <0>         0.0000
     50 H9          2.0920   -2.0103    0.0000 HO        1 <0>         0.0000
     51 H10         2.0983   -0.3603    0.0000 HO        1 <0>         0.0000
     52 H11         7.9702    0.4969    0.0000 H1        1 <0>         0.0000
     53 H12         8.6847    0.9094    0.0000 HC        1 <0>         0.0000
     54 H13         8.6847    0.9094    0.0000 HC        1 <0>         0.0000
     55 H14        10.1798    0.7483    0.0000 HC        1 <0>         0.0000
     56 H15         8.6979   -1.5998    0.0000 HC        1 <0>         0.0000
     57 H16         8.6979   -1.5998    0.0000 HC        1 <0>         0.0000
     58 H17        10.1798   -0.5795    0.0000 HC        1 <0>         0.0000
     59 H18        10.1798   -0.5795    0.0000 HC        1 <0>         0.0000
     60 H19         7.9570   -2.0353    0.0000 HC        1 <0>         0.0000
     61 H20         7.9570   -2.0353    0.0000 HC        1 <0>         0.0000
     62 H21         6.4548   -0.2809    0.0000 H1        1 <0>         0.0000
     63 H22        10.6612    0.0844    0.0000 HC        1 <0>         0.0000
     64 H23        10.6612    0.0844    0.0000 HC        1 <0>         0.0000
     65 H24         6.4411   -2.0591    0.0000 HC        1 <0>         0.0000
     66 H25         6.4411   -2.0591    0.0000 HC        1 <0>         0.0000
     67 H26         7.2258    0.0787    0.0000 H1        1 <0>         0.0000
     68 H27         7.2258    0.0787    0.0000 H1        1 <0>         0.0000
     69 H28         9.3991    1.3219    0.0000 HC        1 <0>         0.0000
     70 H29         9.3991    1.3219    0.0000 HC        1 <0>         0.0000
     71 H30         9.3991    1.3219    0.0000 HC        1 <0>         0.0000
     72 H31         5.6728   -0.7164    0.0000 HC        1 <0>         0.0000
     73 H32         5.6728   -0.7164    0.0000 HC        1 <0>         0.0000
     74 H33         5.6659   -1.6116    0.0000 H1        1 <0>         0.0000
     75 H34         9.9523    2.2008    0.0000 H1        1 <0>         0.0000
     76 H35         9.9523    2.2008    0.0000 H1        1 <0>         0.0000
     77 H36        11.2212    1.7860    0.0000 HA        1 <0>         0.0000
     78 H37         4.2370   -1.6060    0.0000 H2        1 <0>         0.0000
     79 H38         3.5209   -2.0158    0.0000 H1        1 <0>         0.0000
     80 H39         2.8081   -1.6005    0.0000 H1        1 <0>         0.0000
     81 H40         3.5273   -0.3658    0.0000 H1        1 <0>         0.0000
     82 H41         2.8112   -0.7755    0.0000 H1        1 <0>         0.0000
     83 H42         3.5304    0.4592    0.0000 HC        1 <0>         0.0000
     84 H43         3.5304    0.4592    0.0000 HC        1 <0>         0.0000
     85 H44         3.5304    0.4592    0.0000 HC        1 <0>         0.0000
@<TRIPOS>BOND
     1    1   15 1
     2    2   18 1
     3    3   19 1
     4    4   25 1
     5    5   28 1
     6    6   31 1
     7    6   35 1
     8    7   33 1
     9    7   36 1
    10    8   35 1
    11    8   39 1
    12    9   36 2
    13   10   37 1
    14   11   38 1
    15   12   40 1
    16   13   14 1
    17   13   17 1
    18   13   19 1
    19   13   42 1
    20   14   15 1
    21   14   22 1
    22   14   43 1
    23   15   16 1
    24   15   23 1
    25   16   20 1
    26   16   21 1
    27   16   29 1
    28   17   18 1
    29   17   25 1
    30   17   28 1
    31   18   24 1
    32   18   27 1
    33   19   20 1
    34   21   26 1
    35   21   32 1
    36   22   24 1
    37   23   26 1
    38   25   30 1
    39   27   31 1
    40   30   31 1
    41   32   33 1
    42   32   34 2
    43   34   36 1
    44   35   37 1
    45   37   38 1
    46   38   40 1
    47   39   40 1
    48   39   41 1
    49    1   44 1
    50    2   45 1
    51    3   46 1
    52    4   47 1
    53    5   48 1
    54   10   49 1
    55   11   50 1
    56   12   51 1
    57   19   52 1
    58   20   53 1
    59   20   54 1
    60   21   55 1
    61   22   56 1
    62   22   57 1
    63   23   58 1
    64   23   59 1
    65   24   60 1
    66   24   61 1
    67   25   62 1
    68   26   63 1
    69   26   64 1
    70   27   65 1
    71   27   66 1
    72   28   67 1
    73   28   68 1
    74   29   69 1
    75   29   70 1
    76   29   71 1
    77   30   72 1
    78   30   73 1
    79   31   74 1
    80   33   75 1
    81   33   76 1
    82   34   77 1
    83   35   78 1
    84   37   79 1
    85   38   80 1
    86   39   81 1
    87   40   82 1
    88   41   83 1
    89   41   84 1
    90   41   85 1
@<TRIPOS>MOLECULE
1094
   36    38     0     0     0
SMALL
NO_CHARGES

@<TRIPOS>ATOM
      1 O1          5.9369    0.2231    0.0000 OS        1 <0>         0.0000
      2 O2          5.9369   -2.2519    0.0000 O         1 <0>         0.0000
      3 O3          7.3793   -2.2805    0.0000 OH        1 <0>         0.0000
      4 O4          2.3644    1.4606    0.0000 OS        1 <0>         0.0000
      5 O5          3.7934    2.2856    0.0000 OH        1 <0>         0.0000
      6 O6          8.8492    0.2430    0.0000 OH        1 <0>         0.0000
      7 C1          5.2223   -0.1894    0.0000 CT        1 <0>         0.0000
      8 C2          5.2223   -1.0144    0.0000 CT        1 <0>         0.0000
      9 C3          4.5079    0.2231    0.0000 CA        1 <0>         0.0000
     10 C4          6.6513   -1.0144    0.0000 CA        1 <0>         0.0000
     11 C5          5.9369   -1.4269    0.0000 C         1 <0>         0.0000
     12 C6          6.6513   -0.1894    0.0000 CA        1 <0>         0.0000
     13 C7          4.5079    1.0481    0.0000 CA        1 <0>         0.0000
     14 C8          3.7934   -0.1894    0.0000 CA        1 <0>         0.0000
     15 C9          7.3888   -1.4555    0.0000 CA        1 <0>         0.0000
     16 C10         7.3888    0.2517    0.0000 CA        1 <0>         0.0000
     17 C11         3.7934    1.4606    0.0000 CA        1 <0>         0.0000
     18 C12         8.1363   -1.0316    0.0000 CA        1 <0>         0.0000
     19 C13         8.1363   -0.1723    0.0000 CA        1 <0>         0.0000
     20 C14         3.0790    0.2231    0.0000 CA        1 <0>         0.0000
     21 C15         3.0790    1.0481    0.0000 CA        1 <0>         0.0000
     22 C16         1.6500    1.0481    0.0000 CT        1 <0>         0.0000
     23 H1          7.3793   -2.2805    0.0000 HO        1 <0>         0.0000
     24 H2          3.7934    2.2856    0.0000 HO        1 <0>         0.0000
     25 H3          8.8492    0.2430    0.0000 HO        1 <0>         0.0000
     26 H4          5.2223   -0.1894    0.0000 H1        1 <0>         0.0000
     27 H5          5.2223   -1.0144    0.0000 HC        1 <0>         0.0000
     28 H6          5.2223   -1.0144    0.0000 HC        1 <0>         0.0000
     29 H7          4.5079    1.0481    0.0000 HA        1 <0>         0.0000
     30 H8          3.7934   -0.1894    0.0000 HA        1 <0>         0.0000
     31 H9          7.3888    0.2517    0.0000 HA        1 <0>         0.0000
     32 H10         8.1363   -1.0316    0.0000 HA        1 <0>         0.0000
     33 H11         3.0790    0.2231    0.0000 HA        1 <0>         0.0000
     34 H12         1.6500    1.0481    0.0000 H1        1 <0>         0.0000
     35 H13         1.6500    1.0481    0.0000 H1        1 <0>         0.0000
     36 H14         1.6500    1.0481    0.0000 H1        1 <0>         0.0000
@<TRIPOS>BOND
     1    1    7 1
     2    1   12 1
     3    2   11 2
     4    3   15 1
     5    4   21 1
     6    4   22 1
     7    5   17 1
     8    6   19 1
     9    7    8 1
    10    7    9 1
    11    8   11 1
    12    9   13 ar
    13    9   14 ar
    14   10   11 1
    15   10   12 ar
    16   10   15 ar
    17   12   16 ar
    18   13   17 ar
    19   14   20 ar
    20   15   18 ar
    21   16   19 ar
    22   17   21 ar
    23   18   19 ar
    24   20   21 ar
    25    3   23 1
    26    5   24 1
    27    6   25 1
    28    7   26 1
    29    8   27 1
    30    8   28 1
    31   13   29 1
    32   14   30 1
    33   16   31 1
    34   18   32 1
    35   20   33 1
    36   22   34 1
    37   22   35 1
    38   22   36 1
@<TRIPOS>MOLECULE
1125
   31    33     0     0     0
SMALL
NO_CHARGES

@<TRIPOS>ATOM
      1 O1          4.1159    1.4482    0.0000 O         1 <0>         0.0000
      2 O2          4.1159   -1.4482    0.0000 O         1 <0>         0.0000
      3 O3          7.6412    0.0000    0.0000 OS        1 <0>         0.0000
      4 C1          4.3412    0.0000    0.0000 CT        1 <0>         0.0000
      5 C2          3.8597    0.6639    0.0000 C         1 <0>         0.0000
      6 C3          3.8597   -0.6639    0.0000 C         1 <0>         0.0000
      7 C4          3.0791    0.4125    0.0000 CA        1 <0>         0.0000
      8 C5          3.0791   -0.4125    0.0000 CA        1 <0>         0.0000
      9 C6          5.1662    0.0000    0.0000 CA        1 <0>         0.0000
     10 C7          2.3645    0.8250    0.0000 CA        1 <0>         0.0000
     11 C8          2.3645   -0.8250    0.0000 CA        1 <0>         0.0000
     12 C9          5.5787    0.7145    0.0000 CA        1 <0>         0.0000
     13 C10         5.5787   -0.7145    0.0000 CA        1 <0>         0.0000
     14 C11         1.6500    0.4125    0.0000 CA        1 <0>         0.0000
     15 C12         1.6500   -0.4125    0.0000 CA        1 <0>         0.0000
     16 C13         6.4037    0.7145    0.0000 CA        1 <0>         0.0000
     17 C14         6.4037   -0.7145    0.0000 CA        1 <0>         0.0000
     18 C15         6.8162    0.0000    0.0000 CA        1 <0>         0.0000
     19 C16         8.0537   -0.7145    0.0000 CT        1 <0>         0.0000
     20 H1          4.3412    0.0000    0.0000 HC        1 <0>         0.0000
     21 H2          2.3645    0.8250    0.0000 HA        1 <0>         0.0000
     22 H3          2.3645   -0.8250    0.0000 HA        1 <0>         0.0000
     23 H4          5.5787    0.7145    0.0000 HA        1 <0>         0.0000
     24 H5          5.5787   -0.7145    0.0000 HA        1 <0>         0.0000
     25 H6          1.6500    0.4125    0.0000 HA        1 <0>         0.0000
     26 H7          1.6500   -0.4125    0.0000 HA        1 <0>         0.0000
     27 H8          6.4037    0.7145    0.0000 HA        1 <0>         0.0000
     28 H9          6.4037   -0.7145    0.0000 HA        1 <0>         0.0000
     29 H10         8.0537   -0.7145    0.0000 H1        1 <0>         0.0000
     30 H11         8.0537   -0.7145    0.0000 H1        1 <0>         0.0000
     31 H12         8.0537   -0.7145    0.0000 H1        1 <0>         0.0000
@<TRIPOS>BOND
     1    1    5 2
     2    2    6 2
     3    3   18 1
     4    3   19 1
     5    4    5 1
     6    4    6 1
     7    4    9 1
     8    5    7 1
     9    6    8 1
    10    7    8 ar
    11    7   10 ar
    12    8   11 ar
    13    9   12 ar
    14    9   13 ar
    15   10   14 ar
    16   11   15 ar
    17   12   16 ar
    18   13   17 ar
    19   14   15 ar
    20   16   18 ar
    21   17   18 ar
    22    4   20 1
    23   10   21 1
    24   11   22 1
    25   12   23 1
    26   13   24 1
    27   14   25 1
    28   15   26 1
    29   16   27 1
    30   17   28 1
    31   19   29 1
    32   19   30 1
    33   19   31 1
@<TRIPOS>MOLECULE
*****
   71    74     0     0     0
SMALL
NO_CHARGES

@<TRIPOS>ATOM
      1 C1         -0.0315    0.0655    0.0000 CT        1 <0>         0.0000
      2 C2          0.7554    0.3133    0.0000 CT        1 <0>         0.0000
      3 C3         -2.1836   -1.1586    0.0000 CT        1 <0>         0.0000
      4 C4         -0.7554   -1.1586    0.0000 CT        1 <0>         0.0000
      5 C5         -0.0412   -0.7505    0.0000 CT        1 <0>         0.0000
      6 C6         -1.4694   -0.7456    0.0000 CT        1 <0>         0.0000
      7 C7         -2.1836   -1.9844    0.0000 CM        1 <0>         0.0000
      8 C8         -0.7457    0.4881    0.0000 CT        1 <0>         0.0000
      9 C9         -1.4694    0.0801    0.0000 CT        1 <0>         0.0000
     10 C10        -2.8977   -0.7456    0.0000 CM        1 <0>         0.0000
     11 C11         0.7457    1.1440    0.0000 C         1 <0>         0.0000
     12 C12        -2.8977   -2.3974    0.0000 CM        1 <0>         0.0000
     13 O1          1.4694    0.7360    0.0000 OS        1 <0>         0.0000
     14 C13         2.1885    0.3278    0.0000 C         1 <0>         0.0000
     15 C14         1.2266   -0.3570    0.0000 CT        1 <0>         0.0000
     16 C15         0.7408   -1.0176    0.0000 CT        1 <0>         0.0000
     17 C16        -0.7603   -1.9893    0.0000 CT        1 <0>         0.0000
     18 C17        -3.6118   -1.1586    0.0000 CM        1 <0>         0.0000
     19 C18        -3.6118   -1.9844    0.0000 C         1 <0>         0.0000
     20 C19        -1.4743   -2.3974    0.0000 CT        1 <0>         0.0000
     21 C20         2.8880    1.5715    0.0000 C         1 <0>         0.0000
     22 C21         1.4598    1.5666    0.0000 CT        1 <0>         0.0000
     23 O2          2.1885   -0.4978    0.0000 O         1 <0>         0.0000
     24 O3          0.0315    1.5520    0.0000 O         1 <0>         0.0000
     25 O4          2.1739    1.1586    0.0000 OS        1 <0>         0.0000
     26 O5          2.8831    2.3974    0.0000 O         1 <0>         0.0000
     27 O6         -4.3260   -2.3925    0.0000 O         1 <0>         0.0000
     28 C22        -0.0412    0.8963    0.0000 CT        1 <0>         0.0000
     29 O7         -2.1836    0.5027    0.0000 OH        1 <0>         0.0000
     30 O8          2.8977    0.7505    0.0000 OS        1 <0>         0.0000
     31 C23        -2.1885   -0.3278    0.0000 CT        1 <0>         0.0000
     32 C24         3.6022    1.1635    0.0000 CT        1 <0>         0.0000
     33 C25         3.6167    0.3424    0.0000 CT        1 <0>         0.0000
     34 C26         4.3163    1.5812    0.0000 CT        1 <0>         0.0000
     35 C27         4.3260    0.7651    0.0000 CT        1 <0>         0.0000
     36 H1         -1.4743   -1.5666    0.0000 HC        1 <0>         0.0000
     37 H2         -0.0461   -1.5812    0.0000 HC        1 <0>         0.0000
     38 H3         -0.7603   -0.3375    0.0000 HC        1 <0>         0.0000
     39 H4         -0.7457    0.4881    0.0000 HC        1 <0>         0.0000
     40 H5         -0.7457    0.4881    0.0000 HC        1 <0>         0.0000
     41 H6         -1.4694    0.0801    0.0000 H1        1 <0>         0.0000
     42 H7         -2.8977   -0.7456    0.0000 HA        1 <0>         0.0000
     43 H8         -2.8977   -2.3974    0.0000 HA        1 <0>         0.0000
     44 H9          1.2266   -0.3570    0.0000 HC        1 <0>         0.0000
     45 H10         1.2266   -0.3570    0.0000 HC        1 <0>         0.0000
     46 H11         0.7408   -1.0176    0.0000 HC        1 <0>         0.0000
     47 H12         0.7408   -1.0176    0.0000 HC        1 <0>         0.0000
     48 H13        -0.7603   -1.9893    0.0000 HC        1 <0>         0.0000
     49 H14        -0.7603   -1.9893    0.0000 HC        1 <0>         0.0000
     50 H15        -3.6118   -1.1586    0.0000 HA        1 <0>         0.0000
     51 H16        -1.4743   -2.3974    0.0000 HC        1 <0>         0.0000
     52 H17        -1.4743   -2.3974    0.0000 HC        1 <0>         0.0000
     53 H18         1.4598    1.5666    0.0000 H1        1 <0>         0.0000
     54 H19         1.4598    1.5666    0.0000 H1        1 <0>         0.0000
     55 H20        -0.0412    0.8963    0.0000 HC        1 <0>         0.0000
     56 H21        -0.0412    0.8963    0.0000 HC        1 <0>         0.0000
     57 H22        -0.0412    0.8963    0.0000 HC        1 <0>         0.0000
     58 H23        -2.1836    0.5027    0.0000 HO        1 <0>         0.0000
     59 H24        -2.1885   -0.3278    0.0000 HC        1 <0>         0.0000
     60 H25        -2.1885   -0.3278    0.0000 HC        1 <0>         0.0000
     61 H26        -2.1885   -0.3278    0.0000 HC        1 <0>         0.0000
     62 H27         3.6022    1.1635    0.0000 HC        1 <0>         0.0000
     63 H28         3.6022    1.1635    0.0000 HC        1 <0>         0.0000
     64 H29         3.6167    0.3424    0.0000 H1        1 <0>         0.0000
     65 H30         3.6167    0.3424    0.0000 H1        1 <0>         0.0000
     66 H31         4.3163    1.5812    0.0000 HC        1 <0>         0.0000
     67 H32         4.3163    1.5812    0.0000 HC        1 <0>         0.0000
     68 H33         4.3163    1.5812    0.0000 HC        1 <0>         0.0000
     69 H34         4.3260    0.7651    0.0000 HC        1 <0>         0.0000
     70 H35         4.3260    0.7651    0.0000 HC        1 <0>         0.0000
     71 H36         4.3260    0.7651    0.0000 HC        1 <0>         0.0000
@<TRIPOS>BOND
     1    1    2 1
     2    3    6 1
     3    4    5 1
     4    1    5 1
     5    6    9 1
     6    3    7 1
     7    1    8 1
     8    8    9 1
     9    3   10 1
    10    2   11 1
    11    7   12 2
    12    2   13 1
    13   13   14 1
    14    2   15 1
    15    5   16 1
    16    4   17 1
    17   10   18 2
    18   18   19 1
    19   17   20 1
    20   21   25 1
    21   11   22 1
    22   14   23 2
    23   11   24 2
    24   22   25 1
    25   21   26 2
    26   19   27 2
    27    1   28 1
    28    9   29 1
    29   14   30 1
    30    3   31 1
    31   21   32 1
    32   30   33 1
    33   32   34 1
    34   33   35 1
    35    6   36 1
    36    5   37 1
    37    4   38 1
    38   15   16 1
    39    4    6 1
    40    7   20 1
    41   12   19 1
    42    8   39 1
    43    8   40 1
    44    9   41 1
    45   10   42 1
    46   12   43 1
    47   15   44 1
    48   15   45 1
    49   16   46 1
    50   16   47 1
    51   17   48 1
    52   17   49 1
    53   18   50 1
    54   20   51 1
    55   20   52 1
    56   22   53 1
    57   22   54 1
    58   28   55 1
    59   28   56 1
    60   28   57 1
    61   29   58 1
    62   31   59 1
    63   31   60 1
    64   31   61 1
    65   32   62 1
    66   32   63 1
    67   33   64 1
    68   33   65 1
    69   34   66 1
    70   34   67 1
    71   34   68 1
    72   35   69 1
    73   35   70 1
    74   35   71 1
@<TRIPOS>MOLECULE
*****
   68    71     0     0     0
SMALL
NO_CHARGES

@<TRIPOS>ATOM
      1 C1         -0.7494   -1.9837    0.0000 CT        1 <0>         0.0000
      2 C2         -1.4640   -2.3961    0.0000 CT        1 <0>         0.0000
      3 C3         -2.1784   -1.9837    0.0000 CM        1 <0>         0.0000
      4 C4         -2.8929   -2.3961    0.0000 CM        1 <0>         0.0000
      5 C5         -3.6074   -1.1587    0.0000 CT        1 <0>         0.0000
      6 C6         -2.8929   -0.7462    0.0000 CT        1 <0>         0.0000
      7 C7         -2.1784   -1.1587    0.0000 CT        1 <0>         0.0000
      8 C8         -2.1784   -0.3337    0.0000 CT        1 <0>         0.0000
      9 C9         -0.7494    0.4912    0.0000 CT        1 <0>         0.0000
     10 C10         1.2345   -0.3337    0.0000 CT        1 <0>         0.0000
     11 C11         0.7496   -1.0011    0.0000 CT        1 <0>         0.0000
     12 C12        -1.4640   -0.7462    0.0000 CT        1 <0>         0.0000
     13 H1         -1.4640   -1.5712    0.0000 HC        1 <0>         0.0000
     14 C13        -0.0350   -0.7462    0.0000 CT        1 <0>         0.0000
     15 H2         -0.0350   -1.5712    0.0000 HC        1 <0>         0.0000
     16 C14        -0.7494   -1.1587    0.0000 CT        1 <0>         0.0000
     17 H3         -0.7494   -0.3337    0.0000 HC        1 <0>         0.0000
     18 C15        -0.0350    0.0787    0.0000 CT        1 <0>         0.0000
     19 C16        -0.0350    0.9037    0.0000 CT        1 <0>         0.0000
     20 C17         0.7496    0.3337    0.0000 CT        1 <0>         0.0000
     21 H4          1.4641    0.7462    0.0000 HC        1 <0>         0.0000
     22 C18        -3.6074   -1.9837    0.0000 C         1 <0>         0.0000
     23 O1         -4.3220   -2.3962    0.0000 O         1 <0>         0.0000
     24 C19        -1.4640    0.0787    0.0000 CT        1 <0>         0.0000
     25 C20         0.7496    1.1587    0.0000 C         1 <0>         0.0000
     26 O2          0.0351    1.5712    0.0000 O         1 <0>         0.0000
     27 C21         1.4641    1.5712    0.0000 CT        1 <0>         0.0000
     28 O3          2.1786    1.1587    0.0000 OS        1 <0>         0.0000
     29 C22         2.8931    1.5712    0.0000 C         1 <0>         0.0000
     30 O4          2.8931    2.3962    0.0000 O         1 <0>         0.0000
     31 C23         3.6075    1.1587    0.0000 CT        1 <0>         0.0000
     32 C24         4.3220    1.5712    0.0000 CT        1 <0>         0.0000
     33 C25         3.6075    0.3337    0.0000 CT        1 <0>         0.0000
     34 C26         4.3220    0.7462    0.0000 CT        1 <0>         0.0000
     35 H5         -0.7494   -1.9837    0.0000 HC        1 <0>         0.0000
     36 H6         -0.7494   -1.9837    0.0000 HC        1 <0>         0.0000
     37 H7         -1.4640   -2.3961    0.0000 HC        1 <0>         0.0000
     38 H8         -1.4640   -2.3961    0.0000 HC        1 <0>         0.0000
     39 H9         -2.8929   -2.3961    0.0000 HA        1 <0>         0.0000
     40 H10        -3.6074   -1.1587    0.0000 HC        1 <0>         0.0000
     41 H11        -3.6074   -1.1587    0.0000 HC        1 <0>         0.0000
     42 H12        -2.8929   -0.7462    0.0000 HC        1 <0>         0.0000
     43 H13        -2.8929   -0.7462    0.0000 HC        1 <0>         0.0000
     44 H14        -2.1784   -0.3337    0.0000 HC        1 <0>         0.0000
     45 H15        -2.1784   -0.3337    0.0000 HC        1 <0>         0.0000
     46 H16        -2.1784   -0.3337    0.0000 HC        1 <0>         0.0000
     47 H17        -0.7494    0.4912    0.0000 HC        1 <0>         0.0000
     48 H18        -0.7494    0.4912    0.0000 HC        1 <0>         0.0000
     49 H19         1.2345   -0.3337    0.0000 HC        1 <0>         0.0000
     50 H20         1.2345   -0.3337    0.0000 HC        1 <0>         0.0000
     51 H21         0.7496   -1.0011    0.0000 HC        1 <0>         0.0000
     52 H22         0.7496   -1.0011    0.0000 HC        1 <0>         0.0000
     53 H23        -0.0350    0.9037    0.0000 HC        1 <0>         0.0000
     54 H24        -0.0350    0.9037    0.0000 HC        1 <0>         0.0000
     55 H25        -0.0350    0.9037    0.0000 HC        1 <0>         0.0000
     56 H26        -1.4640    0.0787    0.0000 HC        1 <0>         0.0000
     57 H27        -1.4640    0.0787    0.0000 HC        1 <0>         0.0000
     58 H28         1.4641    1.5712    0.0000 H1        1 <0>         0.0000
     59 H29         1.4641    1.5712    0.0000 H1        1 <0>         0.0000
     60 H30         4.3220    1.5712    0.0000 HC        1 <0>         0.0000
     61 H31         4.3220    1.5712    0.0000 HC        1 <0>         0.0000
     62 H32         4.3220    1.5712    0.0000 HC        1 <0>         0.0000
     63 H33         3.6075    0.3337    0.0000 HC        1 <0>         0.0000
     64 H34         3.6075    0.3337    0.0000 HC        1 <0>         0.0000
     65 H35         3.6075    0.3337    0.0000 HC        1 <0>         0.0000
     66 H36         4.3220    0.7462    0.0000 HC        1 <0>         0.0000
     67 H37         4.3220    0.7462    0.0000 HC        1 <0>         0.0000
     68 H38         4.3220    0.7462    0.0000 HC        1 <0>         0.0000
@<TRIPOS>BOND
     1    1   16 1
     2   12   16 1
     3   14   16 1
     4    1    2 1
     5    2    3 1
     6    3    4 2
     7    3    7 1
     8    4   22 1
     9    5   22 1
    10    5    6 1
    11    6    7 1
    12    7    8 1
    13    7   12 1
    14   12   24 1
    15    9   24 1
    16    9   18 1
    17   18   20 1
    18   14   18 1
    19   10   20 1
    20   10   11 1
    21   11   14 1
    22   12   13 1
    23   14   15 1
    24   16   17 1
    25   18   19 1
    26   20   21 1
    27   20   25 1
    28   25   27 1
    29   22   23 2
    30   25   26 2
    31   27   28 1
    32   28   29 1
    33   29   30 2
    34   29   31 1
    35   31   32 1
    36   31   33 1
    37   31   34 1
    38    1   35 1
    39    1   36 1
    40    2   37 1
    41    2   38 1
    42    4   39 1
    43    5   40 1
    44    5   41 1
    45    6   42 1
    46    6   43 1
    47    8   44 1
    48    8   45 1
    49    8   46 1
    50    9   47 1
    51    9   48 1
    52   10   49 1
    53   10   50 1
    54   11   51 1
    55   11   52 1
    56   19   53 1
    57   19   54 1
    58   19   55 1
    59   24   56 1
    60   24   57 1
    61   27   58 1
    62   27   59 1
    63   32   60 1
    64   32   61 1
    65   32   62 1
    66   33   63 1
    67   33   64 1
    68   33   65 1
    69   34   66 1
    70   34   67 1
    71   34   68 1
@<TRIPOS>MOLECULE
*****
   52    56     0     0     0
SMALL
NO_CHARGES

@<TRIPOS>ATOM
      1 O1          4.7148    2.5059    0.0000 OS        1 <0>         0.0000
      2 O2          2.2976    1.6191    0.0000 OH        1 <0>         0.0000
      3 O3          5.8563    1.5868    0.0000 O         1 <0>         0.0000
      4 O4          2.8192   -2.1607    0.0000 OS        1 <0>         0.0000
      5 O5          1.6213   -1.4691    0.0000 OS        1 <0>         0.0000
      6 O6          5.8699   -2.0934    0.0000 OS        1 <0>         0.0000
      7 O7          7.2989    0.3815    0.0000 OS        1 <0>         0.0000
      8 O8          7.2989   -1.2684    0.0000 OS        1 <0>         0.0000
      9 C1          3.7266    1.6191    0.0000 CT        1 <0>         0.0000
     10 C2          4.4410    1.2065    0.0000 CT        1 <0>         0.0000
     11 C3          4.4410    0.3815    0.0000 CT        1 <0>         0.0000
     12 C4          3.0120    1.2065    0.0000 CT        1 <0>         0.0000
     13 C5          3.7266   -0.0308    0.0000 CA        1 <0>         0.0000
     14 C6          3.8991    2.4209    0.0000 CT        1 <0>         0.0000
     15 C7          3.0120    0.3815    0.0000 CA        1 <0>         0.0000
     16 C8          5.0490    1.7569    0.0000 C         1 <0>         0.0000
     17 C9          5.1555   -0.0308    0.0000 CA        1 <0>         0.0000
     18 C10         3.7397   -0.8900    0.0000 CA        1 <0>         0.0000
     19 C11         2.2613   -0.0365    0.0000 CA        1 <0>         0.0000
     20 C12         2.9989   -1.3254    0.0000 CA        1 <0>         0.0000
     21 C13         2.2547   -0.8959    0.0000 CA        1 <0>         0.0000
     22 C14         5.8699    0.3815    0.0000 CA        1 <0>         0.0000
     23 C15         5.1555   -0.8558    0.0000 CA        1 <0>         0.0000
     24 C16         5.8699   -1.2684    0.0000 CA        1 <0>         0.0000
     25 C17         6.5845   -0.0308    0.0000 CA        1 <0>         0.0000
     26 C18         6.5845   -0.8558    0.0000 CA        1 <0>         0.0000
     27 C19         1.9695   -2.2491    0.0000 CT        1 <0>         0.0000
     28 C20         6.5845   -2.5059    0.0000 CT        1 <0>         0.0000
     29 C21         7.2989    1.2065    0.0000 CT        1 <0>         0.0000
     30 C22         8.0134   -0.8558    0.0000 CT        1 <0>         0.0000
     31 H1          3.1931    2.0077    0.0000 HC        1 <0>         0.0000
     32 H2          5.0442    0.9388    0.0000 HC        1 <0>         0.0000
     33 H3          2.2976    1.6191    0.0000 HO        1 <0>         0.0000
     34 H4          4.4410    0.3815    0.0000 HC        1 <0>         0.0000
     35 H5          3.0120    1.2065    0.0000 H1        1 <0>         0.0000
     36 H6          3.8991    2.4209    0.0000 H1        1 <0>         0.0000
     37 H7          3.8991    2.4209    0.0000 H1        1 <0>         0.0000
     38 H8          3.7397   -0.8900    0.0000 HA        1 <0>         0.0000
     39 H9          2.2613   -0.0365    0.0000 HA        1 <0>         0.0000
     40 H10         5.8699    0.3815    0.0000 HA        1 <0>         0.0000
     41 H11         5.1555   -0.8558    0.0000 HA        1 <0>         0.0000
     42 H12         1.9695   -2.2491    0.0000 H2        1 <0>         0.0000
     43 H13         1.9695   -2.2491    0.0000 H2        1 <0>         0.0000
     44 H14         6.5845   -2.5059    0.0000 H1        1 <0>         0.0000
     45 H15         6.5845   -2.5059    0.0000 H1        1 <0>         0.0000
     46 H16         6.5845   -2.5059    0.0000 H1        1 <0>         0.0000
     47 H17         7.2989    1.2065    0.0000 H1        1 <0>         0.0000
     48 H18         7.2989    1.2065    0.0000 H1        1 <0>         0.0000
     49 H19         7.2989    1.2065    0.0000 H1        1 <0>         0.0000
     50 H20         8.0134   -0.8558    0.0000 H1        1 <0>         0.0000
     51 H21         8.0134   -0.8558    0.0000 H1        1 <0>         0.0000
     52 H22         8.0134   -0.8558    0.0000 H1        1 <0>         0.0000
@<TRIPOS>BOND
     1    1   14 1
     2    1   16 1
     3    2   12 1
     4    3   16 2
     5    4   20 1
     6    4   27 1
     7    5   21 1
     8    5   27 1
     9    6   24 1
    10    6   28 1
    11    7   25 1
    12    7   29 1
    13    8   26 1
    14    8   30 1
    15    9   10 1
    16    9   12 1
    17    9   14 1
    18    9   31 1
    19   10   11 1
    20   10   16 1
    21   10   32 1
    22   11   13 1
    23   11   17 1
    24   12   15 1
    25   13   15 ar
    26   13   18 ar
    27   15   19 ar
    28   17   22 ar
    29   17   23 ar
    30   18   20 ar
    31   19   21 ar
    32   20   21 ar
    33   22   25 ar
    34   23   24 ar
    35   24   26 ar
    36   25   26 ar
    37    2   33 1
    38   11   34 1
    39   12   35 1
    40   14   36 1
    41   14   37 1
    42   18   38 1
    43   19   39 1
    44   22   40 1
    45   23   41 1
    46   27   42 1
    47   27   43 1
    48   28   44 1
    49   28   45 1
    50   28   46 1
    51   29   47 1
    52   29   48 1
    53   29   49 1
    54   30   50 1
    55   30   51 1
    56   30   52 1
@<TRIPOS>MOLECULE
*****
   65    69     0     0     0
SMALL
NO_CHARGES

@<TRIPOS>ATOM
      1 C1         13.5340   -5.1807    0.0000 CT        1 <0>         0.0000
      2 C2         12.7464   -5.4288    0.0000 CT        1 <0>         0.0000
      3 C3         14.0121   -5.8531    0.0000 CT        1 <0>         0.0000
      4 O1         14.0228   -4.5190    0.0000 OS        1 <0>         0.0000
      5 C4         13.5626   -4.0554    0.0000 C         1 <0>         0.0000
      6 C5         12.7392   -6.2485    0.0000 CT        1 <0>         0.0000
      7 C6         12.0418   -5.0117    0.0000 CT        1 <0>         0.0000
      8 C7         12.7283   -4.4364    0.0000 CT        1 <0>         0.0000
      9 C8         13.5194   -6.5109    0.0000 CT        1 <0>         0.0000
     10 O2         14.7923   -5.6049    0.0000 OS        1 <0>         0.0000
     11 C9         14.8031   -4.7851    0.0000 CT        1 <0>         0.0000
     12 C10        12.7464   -3.5520    0.0000 CT        1 <0>         0.0000
     13 C11        12.0274   -6.6584    0.0000 CT        1 <0>         0.0000
     14 C12        11.3262   -5.4181    0.0000 CT        1 <0>         0.0000
     15 C13        15.5293   -4.3537    0.0000 CT        1 <0>         0.0000
     16 O3         12.7318   -2.5956    0.0000 OH        1 <0>         0.0000
     17 C14        11.3190   -6.2413    0.0000 CT        1 <0>         0.0000
     18 C15        12.0274   -7.4853    0.0000 CT        1 <0>         0.0000
     19 O4         10.4669   -4.7780    0.0000 OH        1 <0>         0.0000
     20 C16        16.1946   -4.7312    0.0000 CT        1 <0>         0.0000
     21 C17        10.5963   -6.6477    0.0000 CT        1 <0>         0.0000
     22 C18        11.3118   -7.8953    0.0000 CT        1 <0>         0.0000
     23 C19        16.9063   -4.3070    0.0000 CT        1 <0>         0.0000
     24 C20        10.5928   -7.4780    0.0000 CM        1 <0>         0.0000
     25 C21         9.8843   -6.2378    0.0000 CM        1 <0>         0.0000
     26 C22        10.5891   -5.6517    0.0000 CT        1 <0>         0.0000
     27 C23         9.8843   -7.8917    0.0000 CM        1 <0>         0.0000
     28 C24         9.1688   -6.6477    0.0000 CM        1 <0>         0.0000
     29 C25         9.1688   -7.4780    0.0000 C         1 <0>         0.0000
     30 O5          8.4498   -7.8917    0.0000 O         1 <0>         0.0000
     31 H1         12.7248   -7.1546    0.0000 HC        1 <0>         0.0000
     32 H2         12.0129   -5.6517    0.0000 HC        1 <0>         0.0000
     33 H3         11.3046   -7.1151    0.0000 HC        1 <0>         0.0000
     34 O6         14.2771   -3.6428    0.0000 O         1 <0>         0.0000
     35 H4         14.0121   -5.8531    0.0000 H1        1 <0>         0.0000
     36 H5         12.0418   -5.0117    0.0000 HC        1 <0>         0.0000
     37 H6         12.0418   -5.0117    0.0000 HC        1 <0>         0.0000
     38 H7         12.7283   -4.4364    0.0000 HC        1 <0>         0.0000
     39 H8         12.7283   -4.4364    0.0000 HC        1 <0>         0.0000
     40 H9         12.7283   -4.4364    0.0000 HC        1 <0>         0.0000
     41 H10        13.5194   -6.5109    0.0000 HC        1 <0>         0.0000
     42 H11        13.5194   -6.5109    0.0000 HC        1 <0>         0.0000
     43 H12        14.8031   -4.7851    0.0000 H2        1 <0>         0.0000
     44 H13        12.7464   -3.5520    0.0000 H1        1 <0>         0.0000
     45 H14        12.7464   -3.5520    0.0000 H1        1 <0>         0.0000
     46 H15        11.3262   -5.4181    0.0000 H1        1 <0>         0.0000
     47 H16        15.5293   -4.3537    0.0000 HC        1 <0>         0.0000
     48 H17        15.5293   -4.3537    0.0000 HC        1 <0>         0.0000
     49 H18        12.7318   -2.5956    0.0000 HO        1 <0>         0.0000
     50 H19        12.0274   -7.4853    0.0000 HC        1 <0>         0.0000
     51 H20        12.0274   -7.4853    0.0000 HC        1 <0>         0.0000
     52 H21        10.4669   -4.7780    0.0000 HO        1 <0>         0.0000
     53 H22        16.1946   -4.7312    0.0000 HC        1 <0>         0.0000
     54 H23        16.1946   -4.7312    0.0000 HC        1 <0>         0.0000
     55 H24        11.3118   -7.8953    0.0000 HC        1 <0>         0.0000
     56 H25        11.3118   -7.8953    0.0000 HC        1 <0>         0.0000
     57 H26        16.9063   -4.3070    0.0000 HC        1 <0>         0.0000
     58 H27        16.9063   -4.3070    0.0000 HC        1 <0>         0.0000
     59 H28        16.9063   -4.3070    0.0000 HC        1 <0>         0.0000
     60 H29         9.8843   -6.2378    0.0000 HA        1 <0>         0.0000
     61 H30        10.5891   -5.6517    0.0000 HC        1 <0>         0.0000
     62 H31        10.5891   -5.6517    0.0000 HC        1 <0>         0.0000
     63 H32        10.5891   -5.6517    0.0000 HC        1 <0>         0.0000
     64 H33         9.8843   -7.8917    0.0000 HA        1 <0>         0.0000
     65 H34         9.1688   -6.6477    0.0000 HA        1 <0>         0.0000
@<TRIPOS>BOND
     1    1    2 1
     2    1    3 1
     3    1    4 1
     4    1    5 1
     5    2    6 1
     6    2    7 1
     7    2    8 1
     8    3    9 1
     9    3   10 1
    10    4   11 1
    11    5   12 1
    12    6   13 1
    13    7   14 1
    14   11   15 1
    15   12   16 1
    16   13   17 1
    17   13   18 1
    18   14   19 1
    19   15   20 1
    20   17   21 1
    21   18   22 1
    22   20   23 1
    23   21   24 1
    24   21   25 1
    25   21   26 1
    26   24   27 2
    27   25   28 2
    28   27   29 1
    29   29   30 2
    30    6    9 1
    31   10   11 1
    32   14   17 1
    33   22   24 1
    34   28   29 1
    35    6   31 1
    36   13   32 1
    37   17   33 1
    38    5   34 2
    39    3   35 1
    40    7   36 1
    41    7   37 1
    42    8   38 1
    43    8   39 1
    44    8   40 1
    45    9   41 1
    46    9   42 1
    47   11   43 1
    48   12   44 1
    49   12   45 1
    50   14   46 1
    51   15   47 1
    52   15   48 1
    53   16   49 1
    54   18   50 1
    55   18   51 1
    56   19   52 1
    57   20   53 1
    58   20   54 1
    59   22   55 1
    60   22   56 1
    61   23   57 1
    62   23   58 1
    63   23   59 1
    64   25   60 1
    65   26   61 1
    66   26   62 1
    67   26   63 1
    68   27   64 1
    69   28   65 1
@<TRIPOS>MOLECULE
*****
   57    58     0     0     0
SMALL
NO_CHARGES

@<TRIPOS>ATOM
      1 O1          7.4632   -1.8383    0.0000 OS        1 <0>         0.0000
      2 O2          4.5880   -1.1744    0.0000 OH        1 <0>         0.0000
      3 O3          5.1331    1.8471    0.0000 OH        1 <0>         0.0000
      4 O4         11.6574   -3.3179    0.0000 OH        1 <0>         0.0000
      5 O5         11.6574   -1.8888    0.0000 O         1 <0>         0.0000
      6 C1          6.6826   -0.7618    0.0000 CT        1 <0>         0.0000
      7 C2          6.6826   -1.5869    0.0000 CT        1 <0>         0.0000
      8 C3          5.8980   -0.5069    0.0000 CT        1 <0>         0.0000
      9 C4          5.4130   -1.1744    0.0000 CT        1 <0>         0.0000
     10 C5          5.8980   -1.8418    0.0000 CT        1 <0>         0.0000
     11 C6          7.4632   -0.5105    0.0000 CT        1 <0>         0.0000
     12 C7          7.9447   -1.1744    0.0000 CM        1 <0>         0.0000
     13 C8          5.6429    0.2778    0.0000 CM        1 <0>         0.0000
     14 C9          8.7698   -1.1744    0.0000 CM        1 <0>         0.0000
     15 C10         4.8360    0.4493    0.0000 CM        1 <0>         0.0000
     16 C11         4.5810    1.2339    0.0000 CT        1 <0>         0.0000
     17 C12         9.1823   -1.8888    0.0000 CT        1 <0>         0.0000
     18 C13         3.7740    1.4055    0.0000 CT        1 <0>         0.0000
     19 C14        10.0073   -1.8888    0.0000 CT        1 <0>         0.0000
     20 C15         3.5190    2.1902    0.0000 CT        1 <0>         0.0000
     21 C16        10.4198   -2.6034    0.0000 CT        1 <0>         0.0000
     22 C17         2.7121    2.3617    0.0000 CT        1 <0>         0.0000
     23 C18         2.4571    3.1464    0.0000 CT        1 <0>         0.0000
     24 C19        11.2449   -2.6034    0.0000 C         1 <0>         0.0000
     25 C20         1.6501    3.3179    0.0000 CT        1 <0>         0.0000
     26 H1          6.6835   -0.1018    0.0000 HC        1 <0>         0.0000
     27 H2          6.6835   -2.2469    0.0000 H1        1 <0>         0.0000
     28 H3          4.5880   -1.1744    0.0000 HO        1 <0>         0.0000
     29 H4          5.1331    1.8471    0.0000 HO        1 <0>         0.0000
     30 H5         11.6574   -3.3179    0.0000 HO        1 <0>         0.0000
     31 H6          5.8980   -0.5069    0.0000 HC        1 <0>         0.0000
     32 H7          5.4130   -1.1744    0.0000 H1        1 <0>         0.0000
     33 H8          5.8980   -1.8418    0.0000 HC        1 <0>         0.0000
     34 H9          5.8980   -1.8418    0.0000 HC        1 <0>         0.0000
     35 H10         7.4632   -0.5105    0.0000 HC        1 <0>         0.0000
     36 H11         7.4632   -0.5105    0.0000 HC        1 <0>         0.0000
     37 H12         5.6429    0.2778    0.0000 HA        1 <0>         0.0000
     38 H13         8.7698   -1.1744    0.0000 HA        1 <0>         0.0000
     39 H14         4.8360    0.4493    0.0000 HA        1 <0>         0.0000
     40 H15         4.5810    1.2339    0.0000 H1        1 <0>         0.0000
     41 H16         9.1823   -1.8888    0.0000 HC        1 <0>         0.0000
     42 H17         9.1823   -1.8888    0.0000 HC        1 <0>         0.0000
     43 H18         3.7740    1.4055    0.0000 HC        1 <0>         0.0000
     44 H19         3.7740    1.4055    0.0000 HC        1 <0>         0.0000
     45 H20        10.0073   -1.8888    0.0000 HC        1 <0>         0.0000
     46 H21        10.0073   -1.8888    0.0000 HC        1 <0>         0.0000
     47 H22         3.5190    2.1902    0.0000 HC        1 <0>         0.0000
     48 H23         3.5190    2.1902    0.0000 HC        1 <0>         0.0000
     49 H24        10.4198   -2.6034    0.0000 HC        1 <0>         0.0000
     50 H25        10.4198   -2.6034    0.0000 HC        1 <0>         0.0000
     51 H26         2.7121    2.3617    0.0000 HC        1 <0>         0.0000
     52 H27         2.7121    2.3617    0.0000 HC        1 <0>         0.0000
     53 H28         2.4571    3.1464    0.0000 HC        1 <0>         0.0000
     54 H29         2.4571    3.1464    0.0000 HC        1 <0>         0.0000
     55 H30         1.6501    3.3179    0.0000 HC        1 <0>         0.0000
     56 H31         1.6501    3.3179    0.0000 HC        1 <0>         0.0000
     57 H32         1.6501    3.3179    0.0000 HC        1 <0>         0.0000
@<TRIPOS>BOND
     1    1    7 1
     2    1   12 1
     3    2    9 1
     4    3   16 1
     5    4   24 1
     6    5   24 2
     7    6    7 1
     8    6    8 1
     9    6   11 1
    10    6   26 1
    11    7   10 1
    12    7   27 1
    13    8    9 1
    14    8   13 1
    15    9   10 1
    16   11   12 1
    17   12   14 2
    18   13   15 2
    19   14   17 1
    20   15   16 1
    21   16   18 1
    22   17   19 1
    23   18   20 1
    24   19   21 1
    25   20   22 1
    26   21   24 1
    27   22   23 1
    28   23   25 1
    29    2   28 1
    30    3   29 1
    31    4   30 1
    32    8   31 1
    33    9   32 1
    34   10   33 1
    35   10   34 1
    36   11   35 1
    37   11   36 1
    38   13   37 1
    39   14   38 1
    40   15   39 1
    41   16   40 1
    42   17   41 1
    43   17   42 1
    44   18   43 1
    45   18   44 1
    46   19   45 1
    47   19   46 1
    48   20   47 1
    49   20   48 1
    50   21   49 1
    51   21   50 1
    52   22   51 1
    53   22   52 1
    54   23   53 1
    55   23   54 1
    56   25   55 1
    57   25   56 1
    58   25   57 1
@<TRIPOS>MOLECULE
1241
   40    40     0     0     0
SMALL
NO_CHARGES

@<TRIPOS>ATOM
      1 O1          3.0791   -0.8745    0.0000 OS        1 <0>         0.0000
      2 O2          5.2224    2.8381    0.0000 OH        1 <0>         0.0000
      3 O3          3.7935    2.8381    0.0000 O         1 <0>         0.0000
      4 C1          4.5080    1.6005    0.0000 CT        1 <0>         0.0000
      5 C2          4.5080    0.7755    0.0000 CT        1 <0>         0.0000
      6 C3          3.7935    0.3630    0.0000 CT        1 <0>         0.0000
      7 C4          5.3330    1.6005    0.0000 CT        1 <0>         0.0000
      8 C5          3.6830    1.6005    0.0000 CT        1 <0>         0.0000
      9 C6          3.7935   -0.4620    0.0000 CT        1 <0>         0.0000
     10 C7          4.5080    2.4256    0.0000 C         1 <0>         0.0000
     11 C8          3.0791   -1.6995    0.0000 CA        1 <0>         0.0000
     12 C9          2.3645   -2.1120    0.0000 CA        1 <0>         0.0000
     13 C10         3.7935   -2.1120    0.0000 CA        1 <0>         0.0000
     14 C11         3.7935   -2.9371    0.0000 CA        1 <0>         0.0000
     15 C12         2.3645   -2.9371    0.0000 CA        1 <0>         0.0000
     16 C13         3.0791   -3.3496    0.0000 CA        1 <0>         0.0000
     17 C14         1.6500   -1.6995    0.0000 CT        1 <0>         0.0000
     18 C15         4.5080   -3.3496    0.0000 CT        1 <0>         0.0000
     19 H1          5.2224    2.8381    0.0000 HO        1 <0>         0.0000
     20 H2          4.5080    0.7755    0.0000 HC        1 <0>         0.0000
     21 H3          4.5080    0.7755    0.0000 HC        1 <0>         0.0000
     22 H4          3.7935    0.3630    0.0000 HC        1 <0>         0.0000
     23 H5          3.7935    0.3630    0.0000 HC        1 <0>         0.0000
     24 H6          5.3330    1.6005    0.0000 HC        1 <0>         0.0000
     25 H7          5.3330    1.6005    0.0000 HC        1 <0>         0.0000
     26 H8          5.3330    1.6005    0.0000 HC        1 <0>         0.0000
     27 H9          3.6830    1.6005    0.0000 HC        1 <0>         0.0000
     28 H10         3.6830    1.6005    0.0000 HC        1 <0>         0.0000
     29 H11         3.6830    1.6005    0.0000 HC        1 <0>         0.0000
     30 H12         3.7935   -0.4620    0.0000 H1        1 <0>         0.0000
     31 H13         3.7935   -0.4620    0.0000 H1        1 <0>         0.0000
     32 H14         3.7935   -2.1120    0.0000 HA        1 <0>         0.0000
     33 H15         2.3645   -2.9371    0.0000 HA        1 <0>         0.0000
     34 H16         3.0791   -3.3496    0.0000 HA        1 <0>         0.0000
     35 H17         1.6500   -1.6995    0.0000 HC        1 <0>         0.0000
     36 H18         1.6500   -1.6995    0.0000 HC        1 <0>         0.0000
     37 H19         1.6500   -1.6995    0.0000 HC        1 <0>         0.0000
     38 H20         4.5080   -3.3496    0.0000 HC        1 <0>         0.0000
     39 H21         4.5080   -3.3496    0.0000 HC        1 <0>         0.0000
     40 H22         4.5080   -3.3496    0.0000 HC        1 <0>         0.0000
@<TRIPOS>BOND
     1    1    9 1
     2    1   11 1
     3    2   10 1
     4    3   10 2
     5    4    5 1
     6    4    7 1
     7    4    8 1
     8    4   10 1
     9    5    6 1
    10    6    9 1
    11   11   12 ar
    12   11   13 ar
    13   12   15 ar
    14   12   17 1
    15   13   14 ar
    16   14   16 ar
    17   14   18 1
    18   15   16 ar
    19    2   19 1
    20    5   20 1
    21    5   21 1
    22    6   22 1
    23    6   23 1
    24    7   24 1
    25    7   25 1
    26    7   26 1
    27    8   27 1
    28    8   28 1
    29    8   29 1
    30    9   30 1
    31    9   31 1
    32   13   32 1
    33   15   33 1
    34   16   34 1
    35   17   35 1
    36   17   36 1
    37   17   37 1
    38   18   38 1
    39   18   39 1
    40   18   40 1
@<TRIPOS>MOLECULE
1260
   62    66     0     0     0
SMALL
NO_CHARGES

@<TRIPOS>ATOM
      1 O1          7.4742   -0.8731    0.0000 OS        1 <0>         0.0000
      2 O2          6.9362   -2.0785    0.0000 OS        1 <0>         0.0000
      3 O3          5.3411    1.8278    0.0000 OH        1 <0>         0.0000
      4 O4          7.2460    0.5198    0.0000 O         1 <0>         0.0000
      5 O5          8.7528   -0.1526    0.0000 OH        1 <0>         0.0000
      6 O6          1.6500    2.3594    0.0000 O         1 <0>         0.0000
      7 C1          6.0555   -0.2347    0.0000 CT        1 <0>         0.0000
      8 C2          5.3411   -0.6472    0.0000 CT        1 <0>         0.0000
      9 C3          4.6266   -0.2347    0.0000 CT        1 <0>         0.0000
     10 C4          6.6637   -0.7851    0.0000 CT        1 <0>         0.0000
     11 C5          4.6266    0.5903    0.0000 CT        1 <0>         0.0000
     12 C6          6.3294   -1.5340    0.0000 CT        1 <0>         0.0000
     13 C7          5.5137   -1.4491    0.0000 CT        1 <0>         0.0000
     14 C8          6.0555    0.5903    0.0000 CT        1 <0>         0.0000
     15 C9          5.3411    1.0028    0.0000 CT        1 <0>         0.0000
     16 C10         3.8890    1.0314    0.0000 CT        1 <0>         0.0000
     17 C11         3.8890   -0.6759    0.0000 CT        1 <0>         0.0000
     18 C12         6.7701    0.1778    0.0000 CT        1 <0>         0.0000
     19 C13         3.1416   -0.2520    0.0000 CT        1 <0>         0.0000
     20 C14         7.6423   -1.6709    0.0000 CT        1 <0>         0.0000
     21 C15         7.3315   -0.3007    0.0000 C         1 <0>         0.0000
     22 C16         3.1416    0.6075    0.0000 CM        1 <0>         0.0000
     23 C17         4.6067    1.4383    0.0000 CT        1 <0>         0.0000
     24 C18         3.9098    1.9262    0.0000 CM        1 <0>         0.0000
     25 C19         8.0849   -0.6370    0.0000 CT        1 <0>         0.0000
     26 C20         8.4494   -1.5000    0.0000 CT        1 <0>         0.0000
     27 C21         8.0541   -2.3857    0.0000 CT        1 <0>         0.0000
     28 C22         2.3629    1.0490    0.0000 CM        1 <0>         0.0000
     29 C23         3.1416    2.3857    0.0000 CM        1 <0>         0.0000
     30 C24         2.3629    1.9442    0.0000 C         1 <0>         0.0000
     31 H1          4.8076   -1.0359    0.0000 HC        1 <0>         0.0000
     32 H2          4.6317   -0.8947    0.0000 HC        1 <0>         0.0000
     33 H3          5.1982    0.2603    0.0000 HC        1 <0>         0.0000
     34 H4          6.0617   -2.1374    0.0000 H1        1 <0>         0.0000
     35 H5          5.3411    1.8278    0.0000 HO        1 <0>         0.0000
     36 H6          8.7528   -0.1526    0.0000 HO        1 <0>         0.0000
     37 H7          5.5137   -1.4491    0.0000 HC        1 <0>         0.0000
     38 H8          5.5137   -1.4491    0.0000 HC        1 <0>         0.0000
     39 H9          6.0555    0.5903    0.0000 HC        1 <0>         0.0000
     40 H10         6.0555    0.5903    0.0000 HC        1 <0>         0.0000
     41 H11         5.3411    1.0028    0.0000 H1        1 <0>         0.0000
     42 H12         3.8890   -0.6759    0.0000 HC        1 <0>         0.0000
     43 H13         3.8890   -0.6759    0.0000 HC        1 <0>         0.0000
     44 H14         6.7701    0.1778    0.0000 HC        1 <0>         0.0000
     45 H15         6.7701    0.1778    0.0000 HC        1 <0>         0.0000
     46 H16         6.7701    0.1778    0.0000 HC        1 <0>         0.0000
     47 H17         3.1416   -0.2520    0.0000 HC        1 <0>         0.0000
     48 H18         3.1416   -0.2520    0.0000 HC        1 <0>         0.0000
     49 H19         4.6067    1.4383    0.0000 HC        1 <0>         0.0000
     50 H20         4.6067    1.4383    0.0000 HC        1 <0>         0.0000
     51 H21         4.6067    1.4383    0.0000 HC        1 <0>         0.0000
     52 H22         3.9098    1.9262    0.0000 HA        1 <0>         0.0000
     53 H23         8.0849   -0.6370    0.0000 H1        1 <0>         0.0000
     54 H24         8.0849   -0.6370    0.0000 H1        1 <0>         0.0000
     55 H25         8.4494   -1.5000    0.0000 HC        1 <0>         0.0000
     56 H26         8.4494   -1.5000    0.0000 HC        1 <0>         0.0000
     57 H27         8.4494   -1.5000    0.0000 HC        1 <0>         0.0000
     58 H28         8.0541   -2.3857    0.0000 HC        1 <0>         0.0000
     59 H29         8.0541   -2.3857    0.0000 HC        1 <0>         0.0000
     60 H30         8.0541   -2.3857    0.0000 HC        1 <0>         0.0000
     61 H31         2.3629    1.0490    0.0000 HA        1 <0>         0.0000
     62 H32         3.1416    2.3857    0.0000 HA        1 <0>         0.0000
@<TRIPOS>BOND
     1    1   10 1
     2    1   20 1
     3    2   12 1
     4    2   20 1
     5    3   15 1
     6    4   21 2
     7    5   25 1
     8    6   30 2
     9    7    8 1
    10    7   10 1
    11    7   14 1
    12    7   18 1
    13    8    9 1
    14    8   13 1
    15    8   31 1
    16    9   11 1
    17    9   17 1
    18    9   32 1
    19   10   12 1
    20   10   21 1
    21   11   15 1
    22   11   16 1
    23   11   33 1
    24   12   13 1
    25   12   34 1
    26   14   15 1
    27   16   22 1
    28   16   23 1
    29   16   24 1
    30   17   19 1
    31   19   22 1
    32   20   26 1
    33   20   27 1
    34   21   25 1
    35   22   28 2
    36   24   29 2
    37   28   30 1
    38   29   30 1
    39    3   35 1
    40    5   36 1
    41   13   37 1
    42   13   38 1
    43   14   39 1
    44   14   40 1
    45   15   41 1
    46   17   42 1
    47   17   43 1
    48   18   44 1
    49   18   45 1
    50   18   46 1
    51   19   47 1
    52   19   48 1
    53   23   49 1
    54   23   50 1
    55   23   51 1
    56   24   52 1
    57   25   53 1
    58   25   54 1
    59   26   55 1
    60   26   56 1
    61   26   57 1
    62   27   58 1
    63   27   59 1
    64   27   60 1
    65   28   61 1
    66   29   62 1
@<TRIPOS>MOLECULE
*****
   33    34     0     0     0
SMALL
NO_CHARGES

@<TRIPOS>ATOM
      1 O1          5.9370   -0.8250    0.0000 OS        1 <0>         0.0000
      2 O2          5.9370    1.6500    0.0000 OS        1 <0>         0.0000
      3 O3          7.3659   -0.8250    0.0000 O         1 <0>         0.0000
      4 C1          5.2224   -0.4125    0.0000 CT        1 <0>         0.0000
      5 C2          5.2224    0.4125    0.0000 CT        1 <0>         0.0000
      6 C3          4.5080   -0.8250    0.0000 CM        1 <0>         0.0000
      7 C4          1.6500   -0.8250    0.0000 CT        1 <0>         0.0000
      8 C5          5.9370    0.8250    0.0000 CM        1 <0>         0.0000
      9 C6          3.0791   -0.8250    0.0000 CM        1 <0>         0.0000
     10 C7          1.6500   -1.6500    0.0000 CT        1 <0>         0.0000
     11 C8          3.7935   -0.4125    0.0000 CM        1 <0>         0.0000
     12 C9          2.3645   -0.4125    0.0000 CM        1 <0>         0.0000
     13 C10         3.0791   -1.6500    0.0000 CM        1 <0>         0.0000
     14 C11         2.3645   -2.0625    0.0000 CM        1 <0>         0.0000
     15 C12         6.6515    0.4125    0.0000 CM        1 <0>         0.0000
     16 C13         6.6515   -0.4125    0.0000 C         1 <0>         0.0000
     17 C14         6.6515    2.0625    0.0000 CT        1 <0>         0.0000
     18 H1          5.2224   -0.4125    0.0000 H1        1 <0>         0.0000
     19 H2          5.2224    0.4125    0.0000 HC        1 <0>         0.0000
     20 H3          5.2224    0.4125    0.0000 HC        1 <0>         0.0000
     21 H4          4.5080   -0.8250    0.0000 HA        1 <0>         0.0000
     22 H5          1.6500   -0.8250    0.0000 HC        1 <0>         0.0000
     23 H6          1.6500   -0.8250    0.0000 HC        1 <0>         0.0000
     24 H7          1.6500   -1.6500    0.0000 HC        1 <0>         0.0000
     25 H8          1.6500   -1.6500    0.0000 HC        1 <0>         0.0000
     26 H9          3.7935   -0.4125    0.0000 HA        1 <0>         0.0000
     27 H10         2.3645   -0.4125    0.0000 HA        1 <0>         0.0000
     28 H11         3.0791   -1.6500    0.0000 HA        1 <0>         0.0000
     29 H12         2.3645   -2.0625    0.0000 HA        1 <0>         0.0000
     30 H13         6.6515    0.4125    0.0000 HA        1 <0>         0.0000
     31 H14         6.6515    2.0625    0.0000 H1        1 <0>         0.0000
     32 H15         6.6515    2.0625    0.0000 H1        1 <0>         0.0000
     33 H16         6.6515    2.0625    0.0000 H1        1 <0>         0.0000
@<TRIPOS>BOND
     1    1    4 1
     2    1   16 1
     3    2    8 1
     4    2   17 1
     5    3   16 2
     6    4    5 1
     7    4    6 1
     8    5    8 1
     9    6   11 2
    10    7   10 1
    11    7   12 1
    12    8   15 2
    13    9   11 1
    14    9   12 2
    15    9   13 1
    16   10   14 1
    17   13   14 2
    18   15   16 1
    19    4   18 1
    20    5   19 1
    21    5   20 1
    22    6   21 1
    23    7   22 1
    24    7   23 1
    25   10   24 1
    26   10   25 1
    27   11   26 1
    28   12   27 1
    29   13   28 1
    30   14   29 1
    31   15   30 1
    32   17   31 1
    33   17   32 1
    34   17   33 1
@<TRIPOS>MOLECULE
*****
   49    52     0     0     0
SMALL
NO_CHARGES

@<TRIPOS>ATOM
      1 O1          7.7254    1.5548    0.0000 OH        1 <0>         0.0000
      2 O2          2.3626   -1.9994    0.0000 OS        1 <0>         0.0000
      3 C1          6.8116    0.5185    0.0000 CT        1 <0>         0.0000
      4 C2          6.8116   -0.3064    0.0000 CT        1 <0>         0.0000
      5 C3          6.0971   -0.7188    0.0000 CT        1 <0>         0.0000
      6 C4          7.5921    0.7699    0.0000 CT        1 <0>         0.0000
      7 C5          6.0971    0.9310    0.0000 CT        1 <0>         0.0000
      8 C6          7.5921   -0.5577    0.0000 CT        1 <0>         0.0000
      9 C7          5.3827    0.5185    0.0000 CT        1 <0>         0.0000
     10 C8          8.0734    0.1061    0.0000 CT        1 <0>         0.0000
     11 C9          6.1102   -1.5781    0.0000 CT        1 <0>         0.0000
     12 C10         6.8116    1.3434    0.0000 CT        1 <0>         0.0000
     13 C11         4.6321   -0.7245    0.0000 CA        1 <0>         0.0000
     14 C12         5.3696   -2.0134    0.0000 CT        1 <0>         0.0000
     15 C13         4.6255   -1.5838    0.0000 CA        1 <0>         0.0000
     16 C14         8.2602    0.9263    0.0000 C2        1 <0>         0.0000
     17 C15         3.8674   -0.2592    0.0000 CA        1 <0>         0.0000
     18 C16         3.8538   -2.0372    0.0000 CA        1 <0>         0.0000
     19 C17         3.0855   -0.6947    0.0000 CA        1 <0>         0.0000
     20 C18         3.0785   -1.5898    0.0000 CA        1 <0>         0.0000
     21 C19         9.0774    1.0528    0.0000 C2        1 <0>         0.0000
     22 H1          6.0759    0.0864    0.0000 HC        1 <0>         0.0000
     23 C20         5.3827   -0.3064    0.0000 CT        1 <0>         0.0000
     24 H2          5.3762   -1.1312    0.0000 HC        1 <0>         0.0000
     25 H3          6.8988   -1.1266    0.0000 HC        1 <0>         0.0000
     26 C21         1.6497   -1.5840    0.0000 CT        1 <0>         0.0000
     27 H4          7.7254    1.5548    0.0000 HO        1 <0>         0.0000
     28 H5          6.0971    0.9310    0.0000 HC        1 <0>         0.0000
     29 H6          6.0971    0.9310    0.0000 HC        1 <0>         0.0000
     30 H7          7.5921   -0.5577    0.0000 HC        1 <0>         0.0000
     31 H8          7.5921   -0.5577    0.0000 HC        1 <0>         0.0000
     32 H9          5.3827    0.5185    0.0000 HC        1 <0>         0.0000
     33 H10         5.3827    0.5185    0.0000 HC        1 <0>         0.0000
     34 H11         8.0734    0.1061    0.0000 HC        1 <0>         0.0000
     35 H12         8.0734    0.1061    0.0000 HC        1 <0>         0.0000
     36 H13         6.1102   -1.5781    0.0000 HC        1 <0>         0.0000
     37 H14         6.1102   -1.5781    0.0000 HC        1 <0>         0.0000
     38 H15         6.8116    1.3434    0.0000 HC        1 <0>         0.0000
     39 H16         6.8116    1.3434    0.0000 HC        1 <0>         0.0000
     40 H17         6.8116    1.3434    0.0000 HC        1 <0>         0.0000
     41 H18         5.3696   -2.0134    0.0000 HC        1 <0>         0.0000
     42 H19         5.3696   -2.0134    0.0000 HC        1 <0>         0.0000
     43 H20         3.8674   -0.2592    0.0000 HA        1 <0>         0.0000
     44 H21         3.8538   -2.0372    0.0000 HA        1 <0>         0.0000
     45 H22         3.0855   -0.6947    0.0000 HA        1 <0>         0.0000
     46 H23         9.0774    1.0528    0.0000 HC        1 <0>         0.0000
     47 H24         1.6497   -1.5840    0.0000 H1        1 <0>         0.0000
     48 H25         1.6497   -1.5840    0.0000 H1        1 <0>         0.0000
     49 H26         1.6497   -1.5840    0.0000 H1        1 <0>         0.0000
@<TRIPOS>BOND
     1    1    6 1
     2    2   20 1
     3    3    4 1
     4    3    6 1
     5    3    7 1
     6    3   12 1
     7    4    5 1
     8    4    8 1
     9    5   11 1
    10    5   22 1
    11    6   10 1
    12    6   16 1
    13    7    9 1
    14    8   10 1
    15   11   14 1
    16   13   15 ar
    17   13   17 ar
    18   14   15 1
    19   15   18 ar
    20   16   21 3
    21   17   19 ar
    22   18   20 ar
    23   19   20 ar
    24    5   23 1
    25    9   23 1
    26   13   23 1
    27   23   24 1
    28    4   25 1
    29    2   26 1
    30    1   27 1
    31    7   28 1
    32    7   29 1
    33    8   30 1
    34    8   31 1
    35    9   32 1
    36    9   33 1
    37   10   34 1
    38   10   35 1
    39   11   36 1
    40   11   37 1
    41   12   38 1
    42   12   39 1
    43   12   40 1
    44   14   41 1
    45   14   42 1
    46   17   43 1
    47   18   44 1
    48   19   45 1
    49   21   46 1
    50   26   47 1
    51   26   48 1
    52   26   49 1
@<TRIPOS>MOLECULE
1380
   59    62     0     0     0
SMALL
NO_CHARGES

@<TRIPOS>ATOM
      1 O1          6.6263    1.5366    0.0000 OH        1 <0>         0.0000
      2 O2          3.9559    0.9126    0.0000 O         1 <0>         0.0000
      3 O3          7.4634    2.0559    0.0000 O         1 <0>         0.0000
      4 O4          8.9696    1.3822    0.0000 OS        1 <0>         0.0000
      5 O5          1.6500   -2.0181    0.0000 O         1 <0>         0.0000
      6 O6          9.8075    0.2246    0.0000 O         1 <0>         0.0000
      7 C1          6.0993   -0.3249    0.0000 CT        1 <0>         0.0000
      8 C2          6.0993    0.5001    0.0000 CT        1 <0>         0.0000
      9 C3          5.3849   -0.7374    0.0000 CT        1 <0>         0.0000
     10 C4          4.6703   -0.3249    0.0000 CT        1 <0>         0.0000
     11 C5          6.8799    0.7515    0.0000 CT        1 <0>         0.0000
     12 C6          3.9196   -0.7431    0.0000 CT        1 <0>         0.0000
     13 C7          6.8799   -0.5763    0.0000 CT        1 <0>         0.0000
     14 C8          5.3849    0.9126    0.0000 CT        1 <0>         0.0000
     15 C9          7.3614    0.0876    0.0000 CT        1 <0>         0.0000
     16 C10         5.3981   -1.5966    0.0000 CT        1 <0>         0.0000
     17 C11         4.6703    0.5001    0.0000 C         1 <0>         0.0000
     18 C12         6.0993    1.3251    0.0000 CT        1 <0>         0.0000
     19 C13         3.9130   -1.6024    0.0000 CM        1 <0>         0.0000
     20 C14         4.6572   -2.0321    0.0000 CT        1 <0>         0.0000
     21 C15         3.1550   -0.2777    0.0000 CT        1 <0>         0.0000
     22 C16         7.5482    1.2353    0.0000 C         1 <0>         0.0000
     23 C17         3.9259    0.0819    0.0000 CT        1 <0>         0.0000
     24 C18         2.3729   -0.7132    0.0000 CT        1 <0>         0.0000
     25 C19         3.1413   -2.0559    0.0000 CM        1 <0>         0.0000
     26 C20         2.3660   -1.6083    0.0000 C         1 <0>         0.0000
     27 C21         8.3013    0.8984    0.0000 CT        1 <0>         0.0000
     28 C22         9.7227    1.0453    0.0000 C         1 <0>         0.0000
     29 C23        10.3910    1.5291    0.0000 CT        1 <0>         0.0000
     30 H1          6.1691   -0.9812    0.0000 HC        1 <0>         0.0000
     31 H2          5.9589   -1.0630    0.0000 HC        1 <0>         0.0000
     32 H3          5.2420    0.0051    0.0000 HC        1 <0>         0.0000
     33 H4          6.6263    1.5366    0.0000 HO        1 <0>         0.0000
     34 H5          6.8799   -0.5763    0.0000 HC        1 <0>         0.0000
     35 H6          6.8799   -0.5763    0.0000 HC        1 <0>         0.0000
     36 H7          5.3849    0.9126    0.0000 HC        1 <0>         0.0000
     37 H8          5.3849    0.9126    0.0000 HC        1 <0>         0.0000
     38 H9          7.3614    0.0876    0.0000 HC        1 <0>         0.0000
     39 H10         7.3614    0.0876    0.0000 HC        1 <0>         0.0000
     40 H11         5.3981   -1.5966    0.0000 HC        1 <0>         0.0000
     41 H12         5.3981   -1.5966    0.0000 HC        1 <0>         0.0000
     42 H13         6.0993    1.3251    0.0000 HC        1 <0>         0.0000
     43 H14         6.0993    1.3251    0.0000 HC        1 <0>         0.0000
     44 H15         6.0993    1.3251    0.0000 HC        1 <0>         0.0000
     45 H16         4.6572   -2.0321    0.0000 HC        1 <0>         0.0000
     46 H17         4.6572   -2.0321    0.0000 HC        1 <0>         0.0000
     47 H18         3.1550   -0.2777    0.0000 HC        1 <0>         0.0000
     48 H19         3.1550   -0.2777    0.0000 HC        1 <0>         0.0000
     49 H20         3.9259    0.0819    0.0000 HC        1 <0>         0.0000
     50 H21         3.9259    0.0819    0.0000 HC        1 <0>         0.0000
     51 H22         3.9259    0.0819    0.0000 HC        1 <0>         0.0000
     52 H23         2.3729   -0.7132    0.0000 HC        1 <0>         0.0000
     53 H24         2.3729   -0.7132    0.0000 HC        1 <0>         0.0000
     54 H25         3.1413   -2.0559    0.0000 HA        1 <0>         0.0000
     55 H26         8.3013    0.8984    0.0000 H1        1 <0>         0.0000
     56 H27         8.3013    0.8984    0.0000 H1        1 <0>         0.0000
     57 H28        10.3910    1.5291    0.0000 HC        1 <0>         0.0000
     58 H29        10.3910    1.5291    0.0000 HC        1 <0>         0.0000
     59 H30        10.3910    1.5291    0.0000 HC        1 <0>         0.0000
@<TRIPOS>BOND
     1    1   11 1
     2    2   17 2
     3    3   22 2
     4    4   27 1
     5    4   28 1
     6    5   26 2
     7    6   28 2
     8    7    8 1
     9    7    9 1
    10    7   13 1
    11    7   30 1
    12    8   11 1
    13    8   14 1
    14    8   18 1
    15    9   10 1
    16    9   16 1
    17    9   31 1
    18   10   12 1
    19   10   17 1
    20   10   32 1
    21   11   15 1
    22   11   22 1
    23   12   19 1
    24   12   21 1
    25   12   23 1
    26   13   15 1
    27   14   17 1
    28   16   20 1
    29   19   20 1
    30   19   25 2
    31   21   24 1
    32   22   27 1
    33   24   26 1
    34   25   26 1
    35   28   29 1
    36    1   33 1
    37   13   34 1
    38   13   35 1
    39   14   36 1
    40   14   37 1
    41   15   38 1
    42   15   39 1
    43   16   40 1
    44   16   41 1
    45   18   42 1
    46   18   43 1
    47   18   44 1
    48   20   45 1
    49   20   46 1
    50   21   47 1
    51   21   48 1
    52   23   49 1
    53   23   50 1
    54   23   51 1
    55   24   52 1
    56   24   53 1
    57   25   54 1
    58   27   55 1
    59   27   56 1
    60   29   57 1
    61   29   58 1
    62   29   59 1
@<TRIPOS>MOLECULE
1395
   57    63     0     0     0
SMALL
NO_CHARGES

@<TRIPOS>ATOM
      1 O1          3.3963   -1.6419    0.0000 OS        1 <0>         0.0000
      2 O2          3.6170   -3.0361    0.0000 O         1 <0>         0.0000
      3 O3          6.8101    3.0361    0.0000 O         1 <0>         0.0000
      4 C1          3.1514    0.0426    0.0000 CT        1 <0>         0.0000
      5 C2          2.3593    0.0426    0.0000 CJ        1 <0>         0.0000
      6 C3          2.1146   -0.7108    0.0000 CJ        1 <0>         0.0000
      7 C4          3.3963   -0.7108    0.0000 CT        1 <0>         0.0000
      8 C5          3.6940    0.6641    0.0000 CT        1 <0>         0.0000
      9 C6          2.7553   -1.1763    0.0000 CT        1 <0>         0.0000
     10 C7          1.5842   -0.1221    0.0000 CJ        1 <0>         0.0000
     11 C8          3.4095    1.4751    0.0000 CJ        1 <0>         0.0000
     12 C9          4.5023    0.4988    0.0000 CT        1 <0>         0.0000
     13 C10         3.9747    2.1225    0.0000 CJ        1 <0>         0.0000
     14 C11         4.2005   -0.8947    0.0000 CT        1 <0>         0.0000
     15 C12         3.1312    2.2886    0.0000 CJ        1 <0>         0.0000
     16 C13         5.0822    1.1330    0.0000 CT        1 <0>         0.0000
     17 C14         4.7573   -0.2858    0.0000 CT        1 <0>         0.0000
     18 C15         2.1146   -1.6419    0.0000 CT        1 <0>         0.0000
     19 C16         4.8167    1.9503    0.0000 CM        1 <0>         0.0000
     20 C17         3.8838   -1.3350    0.0000 CT        1 <0>         0.0000
     21 C18         5.9550    0.9334    0.0000 CT        1 <0>         0.0000
     22 C19         2.3593   -2.3953    0.0000 CT        1 <0>         0.0000
     23 C20         5.3270    0.3797    0.0000 CT        1 <0>         0.0000
     24 C21         3.1514   -2.3953    0.0000 C         1 <0>         0.0000
     25 C22         5.4054    2.6248    0.0000 CM        1 <0>         0.0000
     26 C23         6.5590    1.5940    0.0000 CT        1 <0>         0.0000
     27 C24         6.2824    2.4455    0.0000 C         1 <0>         0.0000
     28 H1          2.8892    0.6194    0.0000 HC        1 <0>         0.0000
     29 H2          2.2932    0.6727    0.0000 HC        1 <0>         0.0000
     30 H3          1.6906   -1.1817    0.0000 HC        1 <0>         0.0000
     31 H4          4.1107    1.1415    0.0000 HC        1 <0>         0.0000
     32 H5          2.8108    1.2677    0.0000 HC        1 <0>         0.0000
     33 H6          5.1216    0.3647    0.0000 HC        1 <0>         0.0000
     34 H7          4.0994    2.7439    0.0000 HC        1 <0>         0.0000
     35 H8          1.5842   -0.1221    0.0000 HC        1 <0>         0.0000
     36 H9          1.5842   -0.1221    0.0000 HC        1 <0>         0.0000
     37 H10         4.2005   -0.8947    0.0000 HC        1 <0>         0.0000
     38 H11         4.2005   -0.8947    0.0000 HC        1 <0>         0.0000
     39 H12         3.1312    2.2886    0.0000 HC        1 <0>         0.0000
     40 H13         3.1312    2.2886    0.0000 HC        1 <0>         0.0000
     41 H14         4.7573   -0.2858    0.0000 HC        1 <0>         0.0000
     42 H15         4.7573   -0.2858    0.0000 HC        1 <0>         0.0000
     43 H16         2.1146   -1.6419    0.0000 HC        1 <0>         0.0000
     44 H17         2.1146   -1.6419    0.0000 HC        1 <0>         0.0000
     45 H18         3.8838   -1.3350    0.0000 HC        1 <0>         0.0000
     46 H19         3.8838   -1.3350    0.0000 HC        1 <0>         0.0000
     47 H20         3.8838   -1.3350    0.0000 HC        1 <0>         0.0000
     48 H21         5.9550    0.9334    0.0000 HC        1 <0>         0.0000
     49 H22         5.9550    0.9334    0.0000 HC        1 <0>         0.0000
     50 H23         2.3593   -2.3953    0.0000 HC        1 <0>         0.0000
     51 H24         2.3593   -2.3953    0.0000 HC        1 <0>         0.0000
     52 H25         5.3270    0.3797    0.0000 HC        1 <0>         0.0000
     53 H26         5.3270    0.3797    0.0000 HC        1 <0>         0.0000
     54 H27         5.3270    0.3797    0.0000 HC        1 <0>         0.0000
     55 H28         5.4054    2.6248    0.0000 HA        1 <0>         0.0000
     56 H29         6.5590    1.5940    0.0000 HC        1 <0>         0.0000
     57 H30         6.5590    1.5940    0.0000 HC        1 <0>         0.0000
@<TRIPOS>BOND
     1    1    9 1
     2    1   24 1
     3    2   24 2
     4    3   27 2
     5    4    5 1
     6    4    7 1
     7    4    8 1
     8    4   28 1
     9    5    6 1
    10    5   10 1
    11    5   29 1
    12    6    9 1
    13    6   10 1
    14    6   30 1
    15    7    9 1
    16    7   14 1
    17    7   20 1
    18    8   11 1
    19    8   12 1
    20    8   31 1
    21    9   18 1
    22   11   13 1
    23   11   15 1
    24   11   32 1
    25   12   16 1
    26   12   17 1
    27   12   33 1
    28   13   15 1
    29   13   19 1
    30   13   34 1
    31   14   17 1
    32   16   19 1
    33   16   21 1
    34   16   23 1
    35   18   22 1
    36   19   25 2
    37   21   26 1
    38   22   24 1
    39   25   27 1
    40   26   27 1
    41   10   35 1
    42   10   36 1
    43   14   37 1
    44   14   38 1
    45   15   39 1
    46   15   40 1
    47   17   41 1
    48   17   42 1
    49   18   43 1
    50   18   44 1
    51   20   45 1
    52   20   46 1
    53   20   47 1
    54   21   48 1
    55   21   49 1
    56   22   50 1
    57   22   51 1
    58   23   52 1
    59   23   53 1
    60   23   54 1
    61   25   55 1
    62   26   56 1
    63   26   57 1
@<TRIPOS>MOLECULE
1396
  118   125     0     0     0
SMALL
NO_CHARGES

@<TRIPOS>ATOM
      1 O1         15.1106   -1.2857    0.0000 OH        1 <0>         0.0000
      2 O2         10.6613   -2.1538    0.0000 OS        1 <0>         0.0000
      3 O3         16.1499    2.7348    0.0000 OS        1 <0>         0.0000
      4 O4          9.9516   -0.9136    0.0000 OS        1 <0>         0.0000
      5 O5         17.6024    2.9624    0.0000 O         1 <0>         0.0000
      6 O6          7.8034   -2.1428    0.0000 OH        1 <0>         0.0000
      7 O7          7.8098   -0.4928    0.0000 OS        1 <0>         0.0000
      8 O8          7.0905   -1.7276    0.0000 OS        1 <0>         0.0000
      9 O9          4.9455   -2.1318    0.0000 OS        1 <0>         0.0000
     10 O10         4.9519   -0.4818    0.0000 OH        1 <0>         0.0000
     11 O11         3.5166   -2.1263    0.0000 OS        1 <0>         0.0000
     12 O12         3.5261    0.3487    0.0000 OH        1 <0>         0.0000
     13 O13         2.0940   -0.4707    0.0000 OH        1 <0>         0.0000
     14 C1         15.1106   -0.4607    0.0000 CT        1 <0>         0.0000
     15 C2         14.3961   -0.8732    0.0000 CT        1 <0>         0.0000
     16 C3         13.6817   -0.4607    0.0000 CT        1 <0>         0.0000
     17 C4         15.1106    0.3643    0.0000 CT        1 <0>         0.0000
     18 C5         12.9309   -0.8788    0.0000 CT        1 <0>         0.0000
     19 C6         12.9243   -1.7381    0.0000 CT        1 <0>         0.0000
     20 C7         13.6817    0.3643    0.0000 CT        1 <0>         0.0000
     21 C8         14.3961    0.7768    0.0000 CT        1 <0>         0.0000
     22 C9         15.8912    0.6158    0.0000 CT        1 <0>         0.0000
     23 C10        14.4094   -1.7324    0.0000 CT        1 <0>         0.0000
     24 C11        15.8912   -0.7121    0.0000 CT        1 <0>         0.0000
     25 C12        13.6685   -2.1678    0.0000 CT        1 <0>         0.0000
     26 C13        16.3728   -0.0482    0.0000 CT        1 <0>         0.0000
     27 C14        12.1662   -0.4134    0.0000 CT        1 <0>         0.0000
     28 C15        12.1525   -2.1916    0.0000 CT        1 <0>         0.0000
     29 C16        15.1106    1.1893    0.0000 CT        1 <0>         0.0000
     30 C17        12.9373   -0.0538    0.0000 CT        1 <0>         0.0000
     31 C18        11.3843   -0.8490    0.0000 CT        1 <0>         0.0000
     32 C19        11.3774   -1.7441    0.0000 CT        1 <0>         0.0000
     33 C20        16.1476    1.4000    0.0000 CM        1 <0>         0.0000
     34 C21        15.6638    2.0682    0.0000 CT        1 <0>         0.0000
     35 C22        16.9326    1.6536    0.0000 CM        1 <0>         0.0000
     36 C23         9.9484   -1.7386    0.0000 CT        1 <0>         0.0000
     37 C24        16.9340    2.4786    0.0000 C         1 <0>         0.0000
     38 C25         9.2323   -2.1483    0.0000 CT        1 <0>         0.0000
     39 C26         8.5194   -1.7331    0.0000 CT        1 <0>         0.0000
     40 C27         9.2387   -0.4983    0.0000 CT        1 <0>         0.0000
     41 C28         8.5227   -0.9081    0.0000 CT        1 <0>         0.0000
     42 C29         9.2419    0.3267    0.0000 CT        1 <0>         0.0000
     43 C30         7.0937   -0.9026    0.0000 CT        1 <0>         0.0000
     44 C31         6.3808   -0.4873    0.0000 CT        1 <0>         0.0000
     45 C32         5.6648   -0.8970    0.0000 CT        1 <0>         0.0000
     46 C33         6.3744   -2.1373    0.0000 CT        1 <0>         0.0000
     47 C34         5.6615   -1.7220    0.0000 CT        1 <0>         0.0000
     48 C35         6.3713   -2.9624    0.0000 CT        1 <0>         0.0000
     49 C36         4.2326   -1.7165    0.0000 CT        1 <0>         0.0000
     50 C37         4.2358   -0.8916    0.0000 CT        1 <0>         0.0000
     51 C38         3.5230   -0.4763    0.0000 CT        1 <0>         0.0000
     52 C39         2.8037   -1.7111    0.0000 CT        1 <0>         0.0000
     53 C40         2.8068   -0.8861    0.0000 CT        1 <0>         0.0000
     54 C41         2.0876   -2.1208    0.0000 CT        1 <0>         0.0000
     55 H1         14.9703   -1.1987    0.0000 HC        1 <0>         0.0000
     56 H2         14.2533   -0.1307    0.0000 HC        1 <0>         0.0000
     57 H3         12.9268   -2.3981    0.0000 HC        1 <0>         0.0000
     58 H4         15.1106   -1.2857    0.0000 HO        1 <0>         0.0000
     59 H5          7.8034   -2.1428    0.0000 HO        1 <0>         0.0000
     60 H6          4.9519   -0.4818    0.0000 HO        1 <0>         0.0000
     61 H7          3.5261    0.3487    0.0000 HO        1 <0>         0.0000
     62 H8          2.0940   -0.4707    0.0000 HO        1 <0>         0.0000
     63 H9         13.6817    0.3643    0.0000 HC        1 <0>         0.0000
     64 H10        13.6817    0.3643    0.0000 HC        1 <0>         0.0000
     65 H11        14.3961    0.7768    0.0000 HC        1 <0>         0.0000
     66 H12        14.3961    0.7768    0.0000 HC        1 <0>         0.0000
     67 H13        15.8912    0.6158    0.0000 HC        1 <0>         0.0000
     68 H14        14.4094   -1.7324    0.0000 HC        1 <0>         0.0000
     69 H15        14.4094   -1.7324    0.0000 HC        1 <0>         0.0000
     70 H16        15.8912   -0.7121    0.0000 HC        1 <0>         0.0000
     71 H17        15.8912   -0.7121    0.0000 HC        1 <0>         0.0000
     72 H18        13.6685   -2.1678    0.0000 HC        1 <0>         0.0000
     73 H19        13.6685   -2.1678    0.0000 HC        1 <0>         0.0000
     74 H20        16.3728   -0.0482    0.0000 HC        1 <0>         0.0000
     75 H21        16.3728   -0.0482    0.0000 HC        1 <0>         0.0000
     76 H22        12.1662   -0.4134    0.0000 HC        1 <0>         0.0000
     77 H23        12.1662   -0.4134    0.0000 HC        1 <0>         0.0000
     78 H24        12.1525   -2.1916    0.0000 HC        1 <0>         0.0000
     79 H25        12.1525   -2.1916    0.0000 HC        1 <0>         0.0000
     80 H26        15.1106    1.1893    0.0000 HC        1 <0>         0.0000
     81 H27        15.1106    1.1893    0.0000 HC        1 <0>         0.0000
     82 H28        15.1106    1.1893    0.0000 HC        1 <0>         0.0000
     83 H29        12.9373   -0.0538    0.0000 HC        1 <0>         0.0000
     84 H30        12.9373   -0.0538    0.0000 HC        1 <0>         0.0000
     85 H31        12.9373   -0.0538    0.0000 HC        1 <0>         0.0000
     86 H32        11.3843   -0.8490    0.0000 HC        1 <0>         0.0000
     87 H33        11.3843   -0.8490    0.0000 HC        1 <0>         0.0000
     88 H34        11.3774   -1.7441    0.0000 H1        1 <0>         0.0000
     89 H35        15.6638    2.0682    0.0000 H1        1 <0>         0.0000
     90 H36        15.6638    2.0682    0.0000 H1        1 <0>         0.0000
     91 H37        16.9326    1.6536    0.0000 HA        1 <0>         0.0000
     92 H38         9.9484   -1.7386    0.0000 H2        1 <0>         0.0000
     93 H39         9.2323   -2.1483    0.0000 HC        1 <0>         0.0000
     94 H40         9.2323   -2.1483    0.0000 HC        1 <0>         0.0000
     95 H41         8.5194   -1.7331    0.0000 H1        1 <0>         0.0000
     96 H42         9.2387   -0.4983    0.0000 H1        1 <0>         0.0000
     97 H43         8.5227   -0.9081    0.0000 H1        1 <0>         0.0000
     98 H44         9.2419    0.3267    0.0000 HC        1 <0>         0.0000
     99 H45         9.2419    0.3267    0.0000 HC        1 <0>         0.0000
    100 H46         9.2419    0.3267    0.0000 HC        1 <0>         0.0000
    101 H47         7.0937   -0.9026    0.0000 H2        1 <0>         0.0000
    102 H48         6.3808   -0.4873    0.0000 HC        1 <0>         0.0000
    103 H49         6.3808   -0.4873    0.0000 HC        1 <0>         0.0000
    104 H50         5.6648   -0.8970    0.0000 H1        1 <0>         0.0000
    105 H51         6.3744   -2.1373    0.0000 H1        1 <0>         0.0000
    106 H52         5.6615   -1.7220    0.0000 H1        1 <0>         0.0000
    107 H53         6.3713   -2.9624    0.0000 HC        1 <0>         0.0000
    108 H54         6.3713   -2.9624    0.0000 HC        1 <0>         0.0000
    109 H55         6.3713   -2.9624    0.0000 HC        1 <0>         0.0000
    110 H56         4.2326   -1.7165    0.0000 H2        1 <0>         0.0000
    111 H57         4.2358   -0.8916    0.0000 HC        1 <0>         0.0000
    112 H58         4.2358   -0.8916    0.0000 HC        1 <0>         0.0000
    113 H59         3.5230   -0.4763    0.0000 H1        1 <0>         0.0000
    114 H60         2.8037   -1.7111    0.0000 H1        1 <0>         0.0000
    115 H61         2.8068   -0.8861    0.0000 H1        1 <0>         0.0000
    116 H62         2.0876   -2.1208    0.0000 HC        1 <0>         0.0000
    117 H63         2.0876   -2.1208    0.0000 HC        1 <0>         0.0000
    118 H64         2.0876   -2.1208    0.0000 HC        1 <0>         0.0000
@<TRIPOS>BOND
     1    1   14 1
     2    2   32 1
     3    2   36 1
     4    3   34 1
     5    3   37 1
     6    4   36 1
     7    4   40 1
     8    5   37 2
     9    6   39 1
    10    7   41 1
    11    7   43 1
    12    8   43 1
    13    8   46 1
    14    9   47 1
    15    9   49 1
    16   10   45 1
    17   11   49 1
    18   11   52 1
    19   12   51 1
    20   13   53 1
    21   14   15 1
    22   14   17 1
    23   14   24 1
    24   15   16 1
    25   15   23 1
    26   15   55 1
    27   16   18 1
    28   16   20 1
    29   16   56 1
    30   17   21 1
    31   17   22 1
    32   17   29 1
    33   18   19 1
    34   18   27 1
    35   18   30 1
    36   19   25 1
    37   19   28 1
    38   19   57 1
    39   20   21 1
    40   22   26 1
    41   22   33 1
    42   23   25 1
    43   24   26 1
    44   27   31 1
    45   28   32 1
    46   31   32 1
    47   33   34 1
    48   33   35 2
    49   35   37 1
    50   36   38 1
    51   38   39 1
    52   39   41 1
    53   40   41 1
    54   40   42 1
    55   43   44 1
    56   44   45 1
    57   45   47 1
    58   46   47 1
    59   46   48 1
    60   49   50 1
    61   50   51 1
    62   51   53 1
    63   52   53 1
    64   52   54 1
    65    1   58 1
    66    6   59 1
    67   10   60 1
    68   12   61 1
    69   13   62 1
    70   20   63 1
    71   20   64 1
    72   21   65 1
    73   21   66 1
    74   22   67 1
    75   23   68 1
    76   23   69 1
    77   24   70 1
    78   24   71 1
    79   25   72 1
    80   25   73 1
    81   26   74 1
    82   26   75 1
    83   27   76 1
    84   27   77 1
    85   28   78 1
    86   28   79 1
    87   29   80 1
    88   29   81 1
    89   29   82 1
    90   30   83 1
    91   30   84 1
    92   30   85 1
    93   31   86 1
    94   31   87 1
    95   32   88 1
    96   34   89 1
    97   34   90 1
    98   35   91 1
    99   36   92 1
   100   38   93 1
   101   38   94 1
   102   39   95 1
   103   40   96 1
   104   41   97 1
   105   42   98 1
   106   42   99 1
   107   42  100 1
   108   43  101 1
   109   44  102 1
   110   44  103 1
   111   45  104 1
   112   46  105 1
   113   47  106 1
   114   48  107 1
   115   48  108 1
   116   48  109 1
   117   49  110 1
   118   50  111 1
   119   50  112 1
   120   51  113 1
   121   52  114 1
   122   53  115 1
   123   54  116 1
   124   54  117 1
   125   54  118 1
@<TRIPOS>MOLECULE
1399
   29    30     0     0     0
SMALL
NO_CHARGES

@<TRIPOS>ATOM
      1 O1          4.5079   -0.0495    0.0000 OS        1 <0>         0.0000
      2 O2          3.7934    1.1880    0.0000 OH        1 <0>         0.0000
      3 O3          3.7934   -1.2870    0.0000 O         1 <0>         0.0000
      4 O4          6.6513    1.1880    0.0000 OH        1 <0>         0.0000
      5 O5          5.2223    1.1880    0.0000 O         1 <0>         0.0000
      6 C1          5.2223   -0.4620    0.0000 CA        1 <0>         0.0000
      7 C2          3.0790   -0.0495    0.0000 CA        1 <0>         0.0000
      8 C3          5.9369   -0.0495    0.0000 CA        1 <0>         0.0000
      9 C4          3.0790    0.7755    0.0000 CA        1 <0>         0.0000
     10 C5          5.2223   -1.2870    0.0000 CA        1 <0>         0.0000
     11 C6          3.7934   -0.4620    0.0000 C         1 <0>         0.0000
     12 C7          6.6513   -0.4620    0.0000 CA        1 <0>         0.0000
     13 C8          2.3644   -0.4620    0.0000 CA        1 <0>         0.0000
     14 C9          5.9369   -1.6995    0.0000 CA        1 <0>         0.0000
     15 C10         6.6513   -1.2870    0.0000 CA        1 <0>         0.0000
     16 C11         2.3644    1.1880    0.0000 CA        1 <0>         0.0000
     17 C12         1.6500   -0.0495    0.0000 CA        1 <0>         0.0000
     18 C13         1.6500    0.7755    0.0000 CA        1 <0>         0.0000
     19 C14         5.9369    0.7755    0.0000 C         1 <0>         0.0000
     20 H1          3.7934    1.1880    0.0000 HO        1 <0>         0.0000
     21 H2          6.6513    1.1880    0.0000 HO        1 <0>         0.0000
     22 H3          5.2223   -1.2870    0.0000 HA        1 <0>         0.0000
     23 H4          6.6513   -0.4620    0.0000 HA        1 <0>         0.0000
     24 H5          2.3644   -0.4620    0.0000 HA        1 <0>         0.0000
     25 H6          5.9369   -1.6995    0.0000 HA        1 <0>         0.0000
     26 H7          6.6513   -1.2870    0.0000 HA        1 <0>         0.0000
     27 H8          2.3644    1.1880    0.0000 HA        1 <0>         0.0000
     28 H9          1.6500   -0.0495    0.0000 HA        1 <0>         0.0000
     29 H10         1.6500    0.7755    0.0000 HA        1 <0>         0.0000
@<TRIPOS>BOND
     1    1    6 1
     2    1   11 1
     3    2    9 1
     4    3   11 2
     5    4   19 1
     6    5   19 2
     7    6    8 ar
     8    6   10 ar
     9    7    9 ar
    10    7   11 1
    11    7   13 ar
    12    8   12 ar
    13    8   19 1
    14    9   16 ar
    15   10   14 ar
    16   12   15 ar
    17   13   17 ar
    18   14   15 ar
    19   16   18 ar
    20   17   18 ar
    21    2   20 1
    22    4   21 1
    23   10   22 1
    24   12   23 1
    25   13   24 1
    26   14   25 1
    27   15   26 1
    28   16   27 1
    29   17   28 1
    30   18   29 1
@<TRIPOS>MOLECULE
*****
   83    88     0     0     0
SMALL
NO_CHARGES

@<TRIPOS>ATOM
      1 C1          2.7964    1.4189    0.0000 CT        1 <0>         0.0000
      2 C2          2.7964    0.5932    0.0000 CT        1 <0>         0.0000
      3 C3          3.5100    0.1803    0.0000 CT        1 <0>         0.0000
      4 C4          4.2234    0.5932    0.0000 CT        1 <0>         0.0000
      5 C5          4.2234    1.4189    0.0000 CT        1 <0>         0.0000
      6 C6          3.5100    1.8318    0.0000 CT        1 <0>         0.0000
      7 C7         -3.5081   -1.7624    0.0000 CM        1 <0>         0.0000
      8 C8         -3.5081   -2.5881    0.0000 C         1 <0>         0.0000
      9 C9         -2.7947   -3.0009    0.0000 CM        1 <0>         0.0000
     10 C10        -2.7947   -1.3497    0.0000 CM        1 <0>         0.0000
     11 C11        -2.0813   -1.7624    0.0000 CT        1 <0>         0.0000
     12 C12        -2.0848   -2.5881    0.0000 CM        1 <0>         0.0000
     13 C13        -1.3752   -3.0016    0.0000 CT        1 <0>         0.0000
     14 C14        -0.6579   -2.5942    0.0000 CT        1 <0>         0.0000
     15 C15        -1.3683   -1.3504    0.0000 CT        1 <0>         0.0000
     16 C16        -0.6567   -1.7699    0.0000 CT        1 <0>         0.0000
     17 C17        -0.6430   -0.1204    0.0000 CT        1 <0>         0.0000
     18 C18        -1.3647   -0.5263    0.0000 CT        1 <0>         0.0000
     19 C19         0.0685   -0.5401    0.0000 CT        1 <0>         0.0000
     20 C20         0.0600   -1.3640    0.0000 CT        1 <0>         0.0000
     21 C21         0.8411   -1.6267    0.0000 CT        1 <0>         0.0000
     22 C22         0.8547   -0.2936    0.0000 CT        1 <0>         0.0000
     23 C23         1.3338   -0.9608    0.0000 CT        1 <0>         0.0000
     24 O1          2.1165   -0.7112    0.0000 OS        1 <0>         0.0000
     25 C24         2.1210    0.1100    0.0000 CT        1 <0>         0.0000
     26 O2          1.3413    0.3681    0.0000 OS        1 <0>         0.0000
     27 O3         -4.2234   -3.0006    0.0000 O         1 <0>         0.0000
     28 H1         -1.3757   -2.1753    0.0000 HC        1 <0>         0.0000
     29 H2          0.0522   -2.1849    0.0000 HC        1 <0>         0.0000
     30 H3          1.9125   -1.5390    0.0000 H1        1 <0>         0.0000
     31 C25        -2.0897   -0.9367    0.0000 CT        1 <0>         0.0000
     32 H4         -0.6617   -0.9416    0.0000 HC        1 <0>         0.0000
     33 O4         -2.0766   -0.1080    0.0000 OH        1 <0>         0.0000
     34 C26         0.0618    0.2872    0.0000 CT        1 <0>         0.0000
     35 C27         0.8487    0.5349    0.0000 C         1 <0>         0.0000
     36 O5          1.5608    0.9530    0.0000 O         1 <0>         0.0000
     37 C28         0.1307    0.9426    0.0000 CT        1 <0>         0.0000
     38 O6          0.1245    1.7683    0.0000 OS        1 <0>         0.0000
     39 C29        -0.5935    2.1759    0.0000 C         1 <0>         0.0000
     40 O7         -0.5994    3.0016    0.0000 O         1 <0>         0.0000
     41 C30        -1.3055    1.7578    0.0000 CT        1 <0>         0.0000
     42 C31        -2.0235    2.1654    0.0000 CT        1 <0>         0.0000
     43 C32        -1.2994    0.9321    0.0000 CT        1 <0>         0.0000
     44 H5          2.7964    1.4189    0.0000 HC        1 <0>         0.0000
     45 H6          2.7964    1.4189    0.0000 HC        1 <0>         0.0000
     46 H7          2.7964    0.5932    0.0000 HC        1 <0>         0.0000
     47 H8          3.5100    0.1803    0.0000 HC        1 <0>         0.0000
     48 H9          3.5100    0.1803    0.0000 HC        1 <0>         0.0000
     49 H10         4.2234    0.5932    0.0000 HC        1 <0>         0.0000
     50 H11         4.2234    0.5932    0.0000 HC        1 <0>         0.0000
     51 H12         4.2234    1.4189    0.0000 HC        1 <0>         0.0000
     52 H13         4.2234    1.4189    0.0000 HC        1 <0>         0.0000
     53 H14         3.5100    1.8318    0.0000 HC        1 <0>         0.0000
     54 H15         3.5100    1.8318    0.0000 HC        1 <0>         0.0000
     55 H16        -3.5081   -1.7624    0.0000 HA        1 <0>         0.0000
     56 H17        -2.7947   -3.0009    0.0000 HA        1 <0>         0.0000
     57 H18        -2.7947   -1.3497    0.0000 HA        1 <0>         0.0000
     58 H19        -1.3752   -3.0016    0.0000 HC        1 <0>         0.0000
     59 H20        -1.3752   -3.0016    0.0000 HC        1 <0>         0.0000
     60 H21        -0.6579   -2.5942    0.0000 HC        1 <0>         0.0000
     61 H22        -0.6579   -2.5942    0.0000 HC        1 <0>         0.0000
     62 H23        -0.6430   -0.1204    0.0000 HC        1 <0>         0.0000
     63 H24        -0.6430   -0.1204    0.0000 HC        1 <0>         0.0000
     64 H25        -1.3647   -0.5263    0.0000 H1        1 <0>         0.0000
     65 H26         0.8411   -1.6267    0.0000 HC        1 <0>         0.0000
     66 H27         0.8411   -1.6267    0.0000 HC        1 <0>         0.0000
     67 H28         2.1210    0.1100    0.0000 H2        1 <0>         0.0000
     68 H29        -2.0897   -0.9367    0.0000 HC        1 <0>         0.0000
     69 H30        -2.0897   -0.9367    0.0000 HC        1 <0>         0.0000
     70 H31        -2.0897   -0.9367    0.0000 HC        1 <0>         0.0000
     71 H32        -2.0766   -0.1080    0.0000 HO        1 <0>         0.0000
     72 H33         0.0618    0.2872    0.0000 HC        1 <0>         0.0000
     73 H34         0.0618    0.2872    0.0000 HC        1 <0>         0.0000
     74 H35         0.0618    0.2872    0.0000 HC        1 <0>         0.0000
     75 H36         0.1307    0.9426    0.0000 H1        1 <0>         0.0000
     76 H37         0.1307    0.9426    0.0000 H1        1 <0>         0.0000
     77 H38        -1.3055    1.7578    0.0000 HC        1 <0>         0.0000
     78 H39        -2.0235    2.1654    0.0000 HC        1 <0>         0.0000
     79 H40        -2.0235    2.1654    0.0000 HC        1 <0>         0.0000
     80 H41        -2.0235    2.1654    0.0000 HC        1 <0>         0.0000
     81 H42        -1.2994    0.9321    0.0000 HC        1 <0>         0.0000
     82 H43        -1.2994    0.9321    0.0000 HC        1 <0>         0.0000
     83 H44        -1.2994    0.9321    0.0000 HC        1 <0>         0.0000
@<TRIPOS>BOND
     1    9   12 2
     2   20   21 1
     3   21   23 1
     4   19   22 1
     5   22   23 1
     6   10   11 1
     7   11   12 1
     8    3    4 1
     9    4    5 1
    10    5    6 1
    11   23   24 1
    12   24   25 1
    13   25   26 1
    14   22   26 1
    15    2   25 1
    16    7    8 1
    17    8   27 2
    18   11   15 1
    19   15   28 1
    20   12   13 1
    21   20   29 1
    22   13   14 1
    23   23   30 1
    24   14   16 1
    25   11   31 1
    26   15   16 1
    27   16   32 1
    28   18   33 1
    29    1    2 1
    30   19   34 1
    31    1    6 1
    32   22   35 1
    33    2    3 1
    34   35   36 2
    35   15   18 1
    36   35   37 1
    37   16   20 1
    38   37   38 1
    39   17   19 1
    40   38   39 1
    41   17   18 1
    42   39   40 2
    43   19   20 1
    44   39   41 1
    45    7   10 2
    46   41   42 1
    47    8    9 1
    48   41   43 1
    49    1   44 1
    50    1   45 1
    51    2   46 1
    52    3   47 1
    53    3   48 1
    54    4   49 1
    55    4   50 1
    56    5   51 1
    57    5   52 1
    58    6   53 1
    59    6   54 1
    60    7   55 1
    61    9   56 1
    62   10   57 1
    63   13   58 1
    64   13   59 1
    65   14   60 1
    66   14   61 1
    67   17   62 1
    68   17   63 1
    69   18   64 1
    70   21   65 1
    71   21   66 1
    72   25   67 1
    73   31   68 1
    74   31   69 1
    75   31   70 1
    76   33   71 1
    77   34   72 1
    78   34   73 1
    79   34   74 1
    80   37   75 1
    81   37   76 1
    82   41   77 1
    83   42   78 1
    84   42   79 1
    85   42   80 1
    86   43   81 1
    87   43   82 1
    88   43   83 1
@<TRIPOS>MOLECULE
1420
   57    60     0     0     0
SMALL
NO_CHARGES

@<TRIPOS>ATOM
      1 O1          7.1363    1.2335    0.0000 OS        1 <0>         0.0000
      2 O2          1.6500   -2.3202    0.0000 O         1 <0>         0.0000
      3 O3          8.4945    0.7896    0.0000 O         1 <0>         0.0000
      4 C1          6.0993   -0.6270    0.0000 CT        1 <0>         0.0000
      5 C2          6.0993    0.1980    0.0000 CT        1 <0>         0.0000
      6 C3          5.3849   -1.0395    0.0000 CT        1 <0>         0.0000
      7 C4          4.6703   -0.6270    0.0000 CT        1 <0>         0.0000
      8 C5          3.9196   -1.0452    0.0000 CT        1 <0>         0.0000
      9 C6          5.3849    0.6105    0.0000 CT        1 <0>         0.0000
     10 C7          4.6703    0.1980    0.0000 CT        1 <0>         0.0000
     11 C8          6.8799    0.4494    0.0000 CT        1 <0>         0.0000
     12 C9          6.8799   -0.8785    0.0000 CT        1 <0>         0.0000
     13 C10         5.3981   -1.8987    0.0000 CT        1 <0>         0.0000
     14 C11         7.3614   -0.2145    0.0000 CT        1 <0>         0.0000
     15 C12         3.9130   -1.9045    0.0000 CM        1 <0>         0.0000
     16 C13         6.0993    1.0230    0.0000 CT        1 <0>         0.0000
     17 C14         4.6572   -2.3342    0.0000 CT        1 <0>         0.0000
     18 C15         3.1550   -0.5798    0.0000 CT        1 <0>         0.0000
     19 C16         3.9259   -0.2202    0.0000 CT        1 <0>         0.0000
     20 C17         2.3730   -1.0153    0.0000 CT        1 <0>         0.0000
     21 C18         3.1413   -2.3580    0.0000 CM        1 <0>         0.0000
     22 C19         2.3660   -1.9105    0.0000 C         1 <0>         0.0000
     23 C20         7.9435    1.4037    0.0000 C         1 <0>         0.0000
     24 C21         8.1998    2.1879    0.0000 CT        1 <0>         0.0000
     25 C22         9.0071    2.3580    0.0000 CT        1 <0>         0.0000
     26 H1          6.1691   -1.2833    0.0000 HC        1 <0>         0.0000
     27 H2          5.9589   -1.3651    0.0000 HC        1 <0>         0.0000
     28 H3          5.2420   -0.2970    0.0000 HC        1 <0>         0.0000
     29 H4          5.3849    0.6105    0.0000 HC        1 <0>         0.0000
     30 H5          5.3849    0.6105    0.0000 HC        1 <0>         0.0000
     31 H6          4.6703    0.1980    0.0000 HC        1 <0>         0.0000
     32 H7          4.6703    0.1980    0.0000 HC        1 <0>         0.0000
     33 H8          6.8799    0.4494    0.0000 H1        1 <0>         0.0000
     34 H9          6.8799   -0.8785    0.0000 HC        1 <0>         0.0000
     35 H10         6.8799   -0.8785    0.0000 HC        1 <0>         0.0000
     36 H11         5.3981   -1.8987    0.0000 HC        1 <0>         0.0000
     37 H12         5.3981   -1.8987    0.0000 HC        1 <0>         0.0000
     38 H13         7.3614   -0.2145    0.0000 HC        1 <0>         0.0000
     39 H14         7.3614   -0.2145    0.0000 HC        1 <0>         0.0000
     40 H15         6.0993    1.0230    0.0000 HC        1 <0>         0.0000
     41 H16         6.0993    1.0230    0.0000 HC        1 <0>         0.0000
     42 H17         6.0993    1.0230    0.0000 HC        1 <0>         0.0000
     43 H18         4.6572   -2.3342    0.0000 HC        1 <0>         0.0000
     44 H19         4.6572   -2.3342    0.0000 HC        1 <0>         0.0000
     45 H20         3.1550   -0.5798    0.0000 HC        1 <0>         0.0000
     46 H21         3.1550   -0.5798    0.0000 HC        1 <0>         0.0000
     47 H22         3.9259   -0.2202    0.0000 HC        1 <0>         0.0000
     48 H23         3.9259   -0.2202    0.0000 HC        1 <0>         0.0000
     49 H24         3.9259   -0.2202    0.0000 HC        1 <0>         0.0000
     50 H25         2.3730   -1.0153    0.0000 HC        1 <0>         0.0000
     51 H26         2.3730   -1.0153    0.0000 HC        1 <0>         0.0000
     52 H27         3.1413   -2.3580    0.0000 HA        1 <0>         0.0000
     53 H28         8.1998    2.1879    0.0000 HC        1 <0>         0.0000
     54 H29         8.1998    2.1879    0.0000 HC        1 <0>         0.0000
     55 H30         9.0071    2.3580    0.0000 HC        1 <0>         0.0000
     56 H31         9.0071    2.3580    0.0000 HC        1 <0>         0.0000
     57 H32         9.0071    2.3580    0.0000 HC        1 <0>         0.0000
@<TRIPOS>BOND
     1    1   11 1
     2    1   23 1
     3    2   22 2
     4    3   23 2
     5    4    5 1
     6    4    6 1
     7    4   12 1
     8    4   26 1
     9    5    9 1
    10    5   11 1
    11    5   16 1
    12    6    7 1
    13    6   13 1
    14    6   27 1
    15    7    8 1
    16    7   10 1
    17    7   28 1
    18    8   15 1
    19    8   18 1
    20    8   19 1
    21    9   10 1
    22   11   14 1
    23   12   14 1
    24   13   17 1
    25   15   17 1
    26   15   21 2
    27   18   20 1
    28   20   22 1
    29   21   22 1
    30   23   24 1
    31   24   25 1
    32    9   29 1
    33    9   30 1
    34   10   31 1
    35   10   32 1
    36   11   33 1
    37   12   34 1
    38   12   35 1
    39   13   36 1
    40   13   37 1
    41   14   38 1
    42   14   39 1
    43   16   40 1
    44   16   41 1
    45   16   42 1
    46   17   43 1
    47   17   44 1
    48   18   45 1
    49   18   46 1
    50   19   47 1
    51   19   48 1
    52   19   49 1
    53   20   50 1
    54   20   51 1
    55   21   52 1
    56   24   53 1
    57   24   54 1
    58   25   55 1
    59   25   56 1
    60   25   57 1
@<TRIPOS>MOLECULE
1428
   29    30     0     0     0
SMALL
NO_CHARGES

@<TRIPOS>ATOM
      1 O1          3.5220   -2.2688    0.0000 OS        1 <0>         0.0000
      2 O2          2.0930    0.2063    0.0000 OH        1 <0>         0.0000
      3 O3          2.8075    1.4438    0.0000 O         1 <0>         0.0000
      4 C1          3.5220    0.2063    0.0000 CA        1 <0>         0.0000
      5 C2          3.5220    1.0313    0.0000 C         1 <0>         0.0000
      6 C3          4.2365    1.4438    0.0000 CA        1 <0>         0.0000
      7 C4          2.8075   -0.2063    0.0000 CA        1 <0>         0.0000
      8 C5          4.2365   -0.2063    0.0000 CA        1 <0>         0.0000
      9 C6          3.5220   -1.4438    0.0000 CA        1 <0>         0.0000
     10 C7          2.8075   -1.0313    0.0000 CA        1 <0>         0.0000
     11 C8          4.2365   -1.0313    0.0000 CA        1 <0>         0.0000
     12 C9          4.2365    2.2688    0.0000 CA        1 <0>         0.0000
     13 C10         4.9509    1.0313    0.0000 CA        1 <0>         0.0000
     14 C11         4.9509    2.6813    0.0000 CA        1 <0>         0.0000
     15 C12         5.6655    1.4438    0.0000 CA        1 <0>         0.0000
     16 C13         5.6655    2.2688    0.0000 CA        1 <0>         0.0000
     17 C14         4.2365   -2.6813    0.0000 CT        1 <0>         0.0000
     18 H1          2.0930    0.2063    0.0000 HO        1 <0>         0.0000
     19 H2          4.2365   -0.2063    0.0000 HA        1 <0>         0.0000
     20 H3          2.8075   -1.0313    0.0000 HA        1 <0>         0.0000
     21 H4          4.2365   -1.0313    0.0000 HA        1 <0>         0.0000
     22 H5          4.2365    2.2688    0.0000 HA        1 <0>         0.0000
     23 H6          4.9509    1.0313    0.0000 HA        1 <0>         0.0000
     24 H7          4.9509    2.6813    0.0000 HA        1 <0>         0.0000
     25 H8          5.6655    1.4438    0.0000 HA        1 <0>         0.0000
     26 H9          5.6655    2.2688    0.0000 HA        1 <0>         0.0000
     27 H10         4.2365   -2.6813    0.0000 H1        1 <0>         0.0000
     28 H11         4.2365   -2.6813    0.0000 H1        1 <0>         0.0000
     29 H12         4.2365   -2.6813    0.0000 H1        1 <0>         0.0000
@<TRIPOS>BOND
     1    1    9 1
     2    1   17 1
     3    2    7 1
     4    3    5 2
     5    4    5 1
     6    4    7 ar
     7    4    8 ar
     8    5    6 1
     9    6   12 ar
    10    6   13 ar
    11    7   10 ar
    12    8   11 ar
    13    9   10 ar
    14    9   11 ar
    15   12   14 ar
    16   13   15 ar
    17   14   16 ar
    18   15   16 ar
    19    2   18 1
    20    8   19 1
    21   10   20 1
    22   11   21 1
    23   12   22 1
    24   13   23 1
    25   14   24 1
    26   15   25 1
    27   16   26 1
    28   17   27 1
    29   17   28 1
    30   17   29 1
@<TRIPOS>MOLECULE
1431
   54    57     0     0     0
SMALL
NO_CHARGES

@<TRIPOS>ATOM
      1 O1          5.9104    1.6065    0.0000 OH        1 <0>         0.0000
      2 C1          5.3833    0.5700    0.0000 CT        1 <0>         0.0000
      3 C2          5.3833   -0.2550    0.0000 CT        1 <0>         0.0000
      4 C3          4.6689   -0.6675    0.0000 CT        1 <0>         0.0000
      5 C4          3.9544   -0.2550    0.0000 CT        1 <0>         0.0000
      6 C5          6.1640    0.8214    0.0000 CT        1 <0>         0.0000
      7 C6          4.6689    0.9825    0.0000 CT        1 <0>         0.0000
      8 C7          6.1640   -0.5064    0.0000 CT        1 <0>         0.0000
      9 C8          3.9544    0.5700    0.0000 CT        1 <0>         0.0000
     10 C9          6.6455    0.1575    0.0000 CT        1 <0>         0.0000
     11 C10         3.2036   -0.6731    0.0000 CT        1 <0>         0.0000
     12 C11         4.6821   -1.5268    0.0000 CT        1 <0>         0.0000
     13 C12         5.3833    1.3950    0.0000 CT        1 <0>         0.0000
     14 C13         3.9412   -1.9622    0.0000 CT        1 <0>         0.0000
     15 C14         3.1970   -1.5325    0.0000 CM        1 <0>         0.0000
     16 C15         6.8323    1.3052    0.0000 CT        1 <0>         0.0000
     17 C16         2.4389   -0.2078    0.0000 CT        1 <0>         0.0000
     18 C17         1.6570   -0.6433    0.0000 CT        1 <0>         0.0000
     19 C18         2.4252   -1.9861    0.0000 CM        1 <0>         0.0000
     20 C19         1.6500   -1.5385    0.0000 CT        1 <0>         0.0000
     21 C20         7.5854    0.9683    0.0000 CM        1 <0>         0.0000
     22 C21         8.2537    1.4521    0.0000 CM        1 <0>         0.0000
     23 H1          5.4532   -0.9113    0.0000 HC        1 <0>         0.0000
     24 H2          5.2430   -0.9931    0.0000 HC        1 <0>         0.0000
     25 H3          4.5260    0.0750    0.0000 HC        1 <0>         0.0000
     26 H4          3.2163   -0.0133    0.0000 HC        1 <0>         0.0000
     27 H5          5.9104    1.6065    0.0000 HO        1 <0>         0.0000
     28 H6          4.6689    0.9825    0.0000 HC        1 <0>         0.0000
     29 H7          4.6689    0.9825    0.0000 HC        1 <0>         0.0000
     30 H8          6.1640   -0.5064    0.0000 HC        1 <0>         0.0000
     31 H9          6.1640   -0.5064    0.0000 HC        1 <0>         0.0000
     32 H10         3.9544    0.5700    0.0000 HC        1 <0>         0.0000
     33 H11         3.9544    0.5700    0.0000 HC        1 <0>         0.0000
     34 H12         6.6455    0.1575    0.0000 HC        1 <0>         0.0000
     35 H13         6.6455    0.1575    0.0000 HC        1 <0>         0.0000
     36 H14         4.6821   -1.5268    0.0000 HC        1 <0>         0.0000
     37 H15         4.6821   -1.5268    0.0000 HC        1 <0>         0.0000
     38 H16         5.3833    1.3950    0.0000 HC        1 <0>         0.0000
     39 H17         5.3833    1.3950    0.0000 HC        1 <0>         0.0000
     40 H18         5.3833    1.3950    0.0000 HC        1 <0>         0.0000
     41 H19         3.9412   -1.9622    0.0000 HC        1 <0>         0.0000
     42 H20         3.9412   -1.9622    0.0000 HC        1 <0>         0.0000
     43 H21         6.8323    1.3052    0.0000 HC        1 <0>         0.0000
     44 H22         6.8323    1.3052    0.0000 HC        1 <0>         0.0000
     45 H23         2.4389   -0.2078    0.0000 HC        1 <0>         0.0000
     46 H24         2.4389   -0.2078    0.0000 HC        1 <0>         0.0000
     47 H25         1.6570   -0.6433    0.0000 HC        1 <0>         0.0000
     48 H26         1.6570   -0.6433    0.0000 HC        1 <0>         0.0000
     49 H27         2.4252   -1.9861    0.0000 HA        1 <0>         0.0000
     50 H28         1.6500   -1.5385    0.0000 HC        1 <0>         0.0000
     51 H29         1.6500   -1.5385    0.0000 HC        1 <0>         0.0000
     52 H30         7.5854    0.9683    0.0000 HA        1 <0>         0.0000
     53 H31         8.2537    1.4521    0.0000 HA        1 <0>         0.0000
     54 H32         8.2537    1.4521    0.0000 HA        1 <0>         0.0000
@<TRIPOS>BOND
     1    1    6 1
     2    2    3 1
     3    2    6 1
     4    2    7 1
     5    2   13 1
     6    3    4 1
     7    3    8 1
     8    3   23 1
     9    4    5 1
    10    4   12 1
    11    4   24 1
    12    5    9 1
    13    5   11 1
    14    5   25 1
    15    6   10 1
    16    6   16 1
    17    7    9 1
    18    8   10 1
    19   11   15 1
    20   11   17 1
    21   11   26 1
    22   12   14 1
    23   14   15 1
    24   15   19 2
    25   16   21 1
    26   17   18 1
    27   18   20 1
    28   19   20 1
    29   21   22 2
    30    1   27 1
    31    7   28 1
    32    7   29 1
    33    8   30 1
    34    8   31 1
    35    9   32 1
    36    9   33 1
    37   10   34 1
    38   10   35 1
    39   12   36 1
    40   12   37 1
    41   13   38 1
    42   13   39 1
    43   13   40 1
    44   14   41 1
    45   14   42 1
    46   16   43 1
    47   16   44 1
    48   17   45 1
    49   17   46 1
    50   18   47 1
    51   18   48 1
    52   19   49 1
    53   20   50 1
    54   20   51 1
    55   21   52 1
    56   22   53 1
    57   22   54 1
@<TRIPOS>MOLECULE
1434
   44    47     0     0     0
SMALL
NO_CHARGES

@<TRIPOS>ATOM
      1 C1         14.7660   -9.2663    0.0000 CT        1 <0>         0.0000
      2 C2         15.4807   -8.8579    0.0000 C         1 <0>         0.0000
      3 C3         14.7590  -10.0936    0.0000 CT        1 <0>         0.0000
      4 C4         14.0583   -8.8543    0.0000 CT        1 <0>         0.0000
      5 C5         14.7625   -8.4426    0.0000 CT        1 <0>         0.0000
      6 C6         16.1954   -9.2734    0.0000 CT        1 <0>         0.0000
      7 C7         14.0443  -10.5020    0.0000 CT        1 <0>         0.0000
      8 C8         16.1884  -10.1006    0.0000 CT        1 <0>         0.0000
      9 C9         13.3402   -9.2593    0.0000 CT        1 <0>         0.0000
     10 C10        13.3331  -10.0831    0.0000 CT        1 <0>         0.0000
     11 C11        14.0443  -11.3295    0.0000 CT        1 <0>         0.0000
     12 C12        12.6183  -10.4915    0.0000 CT        1 <0>         0.0000
     13 C13        13.3260  -11.7380    0.0000 CT        1 <0>         0.0000
     14 C14        12.6149  -11.3224    0.0000 CM        1 <0>         0.0000
     15 C15        11.9072  -10.0795    0.0000 CT        1 <0>         0.0000
     16 C16        11.9072  -11.7344    0.0000 CM        1 <0>         0.0000
     17 C17        11.1924  -10.4915    0.0000 CT        1 <0>         0.0000
     18 C18        11.1924  -11.3224    0.0000 C         1 <0>         0.0000
     19 O1         10.4743  -11.7309    0.0000 O         1 <0>         0.0000
     20 H1         14.7520  -10.9140    0.0000 HC        1 <0>         0.0000
     21 H2         14.0372   -9.6712    0.0000 HC        1 <0>         0.0000
     22 H3         13.3260  -10.9070    0.0000 HC        1 <0>         0.0000
     23 H4         12.6112   -9.6677    0.0000 HC        1 <0>         0.0000
     24 O2         15.4837   -8.0024    0.0000 O         1 <0>         0.0000
     25 H5         14.0583   -8.8543    0.0000 HC        1 <0>         0.0000
     26 H6         14.0583   -8.8543    0.0000 HC        1 <0>         0.0000
     27 H7         14.7625   -8.4426    0.0000 HC        1 <0>         0.0000
     28 H8         14.7625   -8.4426    0.0000 HC        1 <0>         0.0000
     29 H9         14.7625   -8.4426    0.0000 HC        1 <0>         0.0000
     30 H10        16.1954   -9.2734    0.0000 HC        1 <0>         0.0000
     31 H11        16.1954   -9.2734    0.0000 HC        1 <0>         0.0000
     32 H12        16.1884  -10.1006    0.0000 HC        1 <0>         0.0000
     33 H13        16.1884  -10.1006    0.0000 HC        1 <0>         0.0000
     34 H14        13.3402   -9.2593    0.0000 HC        1 <0>         0.0000
     35 H15        13.3402   -9.2593    0.0000 HC        1 <0>         0.0000
     36 H16        14.0443  -11.3295    0.0000 HC        1 <0>         0.0000
     37 H17        14.0443  -11.3295    0.0000 HC        1 <0>         0.0000
     38 H18        13.3260  -11.7380    0.0000 HC        1 <0>         0.0000
     39 H19        13.3260  -11.7380    0.0000 HC        1 <0>         0.0000
     40 H20        11.9072  -10.0795    0.0000 HC        1 <0>         0.0000
     41 H21        11.9072  -10.0795    0.0000 HC        1 <0>         0.0000
     42 H22        11.9072  -11.7344    0.0000 HA        1 <0>         0.0000
     43 H23        11.1924  -10.4915    0.0000 HC        1 <0>         0.0000
     44 H24        11.1924  -10.4915    0.0000 HC        1 <0>         0.0000
@<TRIPOS>BOND
     1    1    2 1
     2    1    3 1
     3    1    4 1
     4    1    5 1
     5    2    6 1
     6    3    7 1
     7    3    8 1
     8    4    9 1
     9    7   10 1
    10    7   11 1
    11   10   12 1
    12   11   13 1
    13   12   14 1
    14   12   15 1
    15   14   16 2
    16   15   17 1
    17   16   18 1
    18   18   19 2
    19    6    8 1
    20    9   10 1
    21   13   14 1
    22   17   18 1
    23    3   20 1
    24    7   21 1
    25   10   22 1
    26   12   23 1
    27    2   24 2
    28    4   25 1
    29    4   26 1
    30    5   27 1
    31    5   28 1
    32    5   29 1
    33    6   30 1
    34    6   31 1
    35    8   32 1
    36    8   33 1
    37    9   34 1
    38    9   35 1
    39   11   36 1
    40   11   37 1
    41   13   38 1
    42   13   39 1
    43   15   40 1
    44   15   41 1
    45   16   42 1
    46   17   43 1
    47   17   44 1
@<TRIPOS>MOLECULE
1436
   73    75     0     0     0
SMALL
NO_CHARGES

@<TRIPOS>ATOM
      1 O1          1.6500   -3.9985    0.0000 OH        1 <0>         0.0000
      2 O2          4.5080   -3.9985    0.0000 OH        1 <0>         0.0000
      3 C1          4.5080    0.9517    0.0000 CT        1 <0>         0.0000
      4 C2          5.2886    1.2030    0.0000 CT        1 <0>         0.0000
      5 C3          4.5080    0.1266    0.0000 CT        1 <0>         0.0000
      6 C4          5.7701    0.5391    0.0000 CT        1 <0>         0.0000
      7 C5          5.2886   -0.1247    0.0000 CT        1 <0>         0.0000
      8 C6          3.7935    1.3642    0.0000 CT        1 <0>         0.0000
      9 C7          5.5449    1.9872    0.0000 CT        1 <0>         0.0000
     10 C8          3.7935   -0.2859    0.0000 CM        1 <0>         0.0000
     11 C9          4.5080    1.7767    0.0000 CT        1 <0>         0.0000
     12 C10         3.0791    0.9517    0.0000 CT        1 <0>         0.0000
     13 C11         3.0791    0.1266    0.0000 CT        1 <0>         0.0000
     14 C12         6.3522    2.1574    0.0000 CT        1 <0>         0.0000
     15 C13         4.9939    2.6013    0.0000 CT        1 <0>         0.0000
     16 C14         3.7935   -1.1109    0.0000 CM        1 <0>         0.0000
     17 C15         6.6086    2.9416    0.0000 CT        1 <0>         0.0000
     18 C16         7.4158    3.1117    0.0000 CT        1 <0>         0.0000
     19 C17         3.0791   -1.5234    0.0000 CM        1 <0>         0.0000
     20 C18         7.6721    3.8959    0.0000 CT        1 <0>         0.0000
     21 C19         3.0791   -2.3484    0.0000 CM        1 <0>         0.0000
     22 C20         2.3645   -2.7609    0.0000 CT        1 <0>         0.0000
     23 C21         3.7935   -2.7609    0.0000 CM        1 <0>         0.0000
     24 C22         7.1211    4.5100    0.0000 CT        1 <0>         0.0000
     25 C23         8.4794    4.0660    0.0000 CT        1 <0>         0.0000
     26 C24         2.3645   -3.5859    0.0000 CT        1 <0>         0.0000
     27 C25         3.7935   -3.5859    0.0000 CT        1 <0>         0.0000
     28 C26         3.0791   -3.9985    0.0000 CT        1 <0>         0.0000
     29 C27         4.5080   -2.3484    0.0000 CM        1 <0>         0.0000
     30 H1          5.9406    1.3054    0.0000 HC        1 <0>         0.0000
     31 H2          4.5779   -0.5297    0.0000 HC        1 <0>         0.0000
     32 H3          1.6500   -3.9985    0.0000 HO        1 <0>         0.0000
     33 H4          4.5080   -3.9985    0.0000 HO        1 <0>         0.0000
     34 H5          5.7701    0.5391    0.0000 HC        1 <0>         0.0000
     35 H6          5.7701    0.5391    0.0000 HC        1 <0>         0.0000
     36 H7          5.2886   -0.1247    0.0000 HC        1 <0>         0.0000
     37 H8          5.2886   -0.1247    0.0000 HC        1 <0>         0.0000
     38 H9          3.7935    1.3642    0.0000 HC        1 <0>         0.0000
     39 H10         3.7935    1.3642    0.0000 HC        1 <0>         0.0000
     40 H11         5.5449    1.9872    0.0000 HC        1 <0>         0.0000
     41 H12         4.5080    1.7767    0.0000 HC        1 <0>         0.0000
     42 H13         4.5080    1.7767    0.0000 HC        1 <0>         0.0000
     43 H14         4.5080    1.7767    0.0000 HC        1 <0>         0.0000
     44 H15         3.0791    0.9517    0.0000 HC        1 <0>         0.0000
     45 H16         3.0791    0.9517    0.0000 HC        1 <0>         0.0000
     46 H17         3.0791    0.1266    0.0000 HC        1 <0>         0.0000
     47 H18         3.0791    0.1266    0.0000 HC        1 <0>         0.0000
     48 H19         6.3522    2.1574    0.0000 HC        1 <0>         0.0000
     49 H20         6.3522    2.1574    0.0000 HC        1 <0>         0.0000
     50 H21         4.9939    2.6013    0.0000 HC        1 <0>         0.0000
     51 H22         4.9939    2.6013    0.0000 HC        1 <0>         0.0000
     52 H23         4.9939    2.6013    0.0000 HC        1 <0>         0.0000
     53 H24         3.7935   -1.1109    0.0000 HA        1 <0>         0.0000
     54 H25         6.6086    2.9416    0.0000 HC        1 <0>         0.0000
     55 H26         6.6086    2.9416    0.0000 HC        1 <0>         0.0000
     56 H27         7.4158    3.1117    0.0000 HC        1 <0>         0.0000
     57 H28         7.4158    3.1117    0.0000 HC        1 <0>         0.0000
     58 H29         3.0791   -1.5234    0.0000 HA        1 <0>         0.0000
     59 H30         7.6721    3.8959    0.0000 HC        1 <0>         0.0000
     60 H31         2.3645   -2.7609    0.0000 HC        1 <0>         0.0000
     61 H32         2.3645   -2.7609    0.0000 HC        1 <0>         0.0000
     62 H33         7.1211    4.5100    0.0000 HC        1 <0>         0.0000
     63 H34         7.1211    4.5100    0.0000 HC        1 <0>         0.0000
     64 H35         7.1211    4.5100    0.0000 HC        1 <0>         0.0000
     65 H36         8.4794    4.0660    0.0000 HC        1 <0>         0.0000
     66 H37         8.4794    4.0660    0.0000 HC        1 <0>         0.0000
     67 H38         8.4794    4.0660    0.0000 HC        1 <0>         0.0000
     68 H39         2.3645   -3.5859    0.0000 H1        1 <0>         0.0000
     69 H40         3.7935   -3.5859    0.0000 H1        1 <0>         0.0000
     70 H41         3.0791   -3.9985    0.0000 HC        1 <0>         0.0000
     71 H42         3.0791   -3.9985    0.0000 HC        1 <0>         0.0000
     72 H43         4.5080   -2.3484    0.0000 HA        1 <0>         0.0000
     73 H44         4.5080   -2.3484    0.0000 HA        1 <0>         0.0000
@<TRIPOS>BOND
     1    1   26 1
     2    2   27 1
     3    3    4 1
     4    3    5 1
     5    3    8 1
     6    3   11 1
     7    4    6 1
     8    4    9 1
     9    4   30 1
    10    5    7 1
    11    5   10 1
    12    5   31 1
    13    6    7 1
    14    8   12 1
    15    9   14 1
    16    9   15 1
    17   10   13 1
    18   10   16 2
    19   12   13 1
    20   14   17 1
    21   16   19 1
    22   17   18 1
    23   18   20 1
    24   19   21 2
    25   20   24 1
    26   20   25 1
    27   21   22 1
    28   21   23 1
    29   22   26 1
    30   23   27 1
    31   23   29 2
    32   26   28 1
    33   27   28 1
    34    1   32 1
    35    2   33 1
    36    6   34 1
    37    6   35 1
    38    7   36 1
    39    7   37 1
    40    8   38 1
    41    8   39 1
    42    9   40 1
    43   11   41 1
    44   11   42 1
    45   11   43 1
    46   12   44 1
    47   12   45 1
    48   13   46 1
    49   13   47 1
    50   14   48 1
    51   14   49 1
    52   15   50 1
    53   15   51 1
    54   15   52 1
    55   16   53 1
    56   17   54 1
    57   17   55 1
    58   18   56 1
    59   18   57 1
    60   19   58 1
    61   20   59 1
    62   22   60 1
    63   22   61 1
    64   24   62 1
    65   24   63 1
    66   24   64 1
    67   25   65 1
    68   25   66 1
    69   25   67 1
    70   26   68 1
    71   27   69 1
    72   28   70 1
    73   28   71 1
    74   29   72 1
    75   29   73 1
@<TRIPOS>MOLECULE
1440
   14    13     0     0     0
SMALL
NO_CHARGES

@<TRIPOS>ATOM
      1 O1          5.2224    0.2063    0.0000 OH        1 <0>         0.0000
      2 O2          1.6500    0.6188    0.0000 O2        1 <0>         0.0000
      3 O3          2.3645   -0.6188    0.0000 O2        1 <0>         0.0000
      4 C1          3.7935    0.2063    0.0000 CT        1 <0>         0.0000
      5 C2          3.0791    0.6188    0.0000 CT        1 <0>         0.0000
      6 C3          4.5080    0.6188    0.0000 CT        1 <0>         0.0000
      7 C4          2.3645    0.2063    0.0000 C         1 <0>         0.0000
      8 H1          5.2224    0.2063    0.0000 HO        1 <0>         0.0000
      9 H2          3.7935    0.2063    0.0000 HC        1 <0>         0.0000
     10 H3          3.7935    0.2063    0.0000 HC        1 <0>         0.0000
     11 H4          3.0791    0.6188    0.0000 HC        1 <0>         0.0000
     12 H5          3.0791    0.6188    0.0000 HC        1 <0>         0.0000
     13 H6          4.5080    0.6188    0.0000 H1        1 <0>         0.0000
     14 H7          4.5080    0.6188    0.0000 H1        1 <0>         0.0000
@<TRIPOS>BOND
     1    1    6 1
     2    2    7 1
     3    3    7 2
     4    4    5 1
     5    4    6 1
     6    5    7 1
     7    1    8 1
     8    4    9 1
     9    4   10 1
    10    5   11 1
    11    5   12 1
    12    6   13 1
    13    6   14 1
@<TRIPOS>MOLECULE
*****
   47    50     0     0     0
SMALL
NO_CHARGES

 
@<TRIPOS>ATOM
      1 C1         13.5960  -10.8940    0.0000 CT        1 <0>         0.0000
      2 C2         12.8669  -10.5080    0.0000 CT        1 <0>         0.0000
      3 C3         14.2823  -10.4651    0.0000 CT        1 <0>         0.0000
      4 C4         13.5960  -11.7518    0.0000 CT        1 <0>         0.0000
      5 C5         12.1378  -10.8940    0.0000 CT        1 <0>         0.0000
      6 C6         12.8669   -9.6502    0.0000 CT        1 <0>         0.0000
      7 C7         14.2823   -9.6502    0.0000 CT        1 <0>         0.0000
      8 C8         15.7405  -10.4651    0.0000 CT        1 <0>         0.0000
      9 C9         12.8669  -12.1378    0.0000 CM        1 <0>         0.0000
     10 C10        12.1378  -11.7089    0.0000 CM        1 <0>         0.0000
     11 C11        11.4516  -10.5080    0.0000 CT        1 <0>         0.0000
     12 C12        12.1378   -9.9933    0.0000 CT        1 <0>         0.0000
     13 C13        13.5960   -9.2213    0.0000 CT        1 <0>         0.0000
     14 C14        15.0114   -9.2213    0.0000 C         1 <0>         0.0000
     15 C15        14.2394   -8.6208    0.0000 CT        1 <0>         0.0000
     16 C16        15.7405   -9.6502    0.0000 CT        1 <0>         0.0000
     17 C17        11.4516  -12.1378    0.0000 CT        1 <0>         0.0000
     18 C18        10.7224  -10.8940    0.0000 CT        1 <0>         0.0000
     19 O1         15.0114   -8.4064    0.0000 O         1 <0>         0.0000
     20 C19        10.7224  -11.7089    0.0000 C         1 <0>         0.0000
     21 O2         10.0362  -12.1378    0.0000 O         1 <0>         0.0000
     22 H1         13.5960  -10.0791    0.0000 HC        1 <0>         0.0000
     23 H2         12.8669  -11.2800    0.0000 HC        1 <0>         0.0000
     24 H3         14.2823  -11.2800    0.0000 HC        1 <0>         0.0000
     25 H4         13.5960  -11.7518    0.0000 HC        1 <0>         0.0000
     26 H5         13.5960  -11.7518    0.0000 HC        1 <0>         0.0000
     27 H6         12.8669   -9.6502    0.0000 HC        1 <0>         0.0000
     28 H7         12.8669   -9.6502    0.0000 HC        1 <0>         0.0000
     29 H8         15.7405  -10.4651    0.0000 HC        1 <0>         0.0000
     30 H9         15.7405  -10.4651    0.0000 HC        1 <0>         0.0000
     31 H10        12.8669  -12.1378    0.0000 HA        1 <0>         0.0000
     32 H11        11.4516  -10.5080    0.0000 HC        1 <0>         0.0000
     33 H12        11.4516  -10.5080    0.0000 HC        1 <0>         0.0000
     34 H13        12.1378   -9.9933    0.0000 HC        1 <0>         0.0000
     35 H14        12.1378   -9.9933    0.0000 HC        1 <0>         0.0000
     36 H15        12.1378   -9.9933    0.0000 HC        1 <0>         0.0000
     37 H16        13.5960   -9.2213    0.0000 HC        1 <0>         0.0000
     38 H17        13.5960   -9.2213    0.0000 HC        1 <0>         0.0000
     39 H18        14.2394   -8.6208    0.0000 HC        1 <0>         0.0000
     40 H19        14.2394   -8.6208    0.0000 HC        1 <0>         0.0000
     41 H20        14.2394   -8.6208    0.0000 HC        1 <0>         0.0000
     42 H21        15.7405   -9.6502    0.0000 HC        1 <0>         0.0000
     43 H22        15.7405   -9.6502    0.0000 HC        1 <0>         0.0000
     44 H23        11.4516  -12.1378    0.0000 HC        1 <0>         0.0000
     45 H24        11.4516  -12.1378    0.0000 HC        1 <0>         0.0000
     46 H25        10.7224  -10.8940    0.0000 HC        1 <0>         0.0000
     47 H26        10.7224  -10.8940    0.0000 HC        1 <0>         0.0000
@<TRIPOS>BOND
     1    1    2 1
     2    1    3 1
     3    1    4 1
     4    2    5 1
     5    2    6 1
     6    3    7 1
     7    3    8 1
     8    4    9 1
     9    5   10 1
    10    5   11 1
    11    5   12 1
    12    6   13 1
    13    7   14 1
    14    7   15 1
    15    8   16 1
    16   10   17 1
    17   11   18 1
    18   14   19 2
    19   17   20 1
    20   20   21 2
    21    7   13 1
    22    9   10 2
    23   14   16 1
    24   18   20 1
    25    1   22 1
    26    2   23 1
    27    3   24 1
    28    4   25 1
    29    4   26 1
    30    6   27 1
    31    6   28 1
    32    8   29 1
    33    8   30 1
    34    9   31 1
    35   11   32 1
    36   11   33 1
    37   12   34 1
    38   12   35 1
    39   12   36 1
    40   13   37 1
    41   13   38 1
    42   15   39 1
    43   15   40 1
    44   15   41 1
    45   16   42 1
    46   16   43 1
    47   17   44 1
    48   17   45 1
    49   18   46 1
    50   18   47 1
@<TRIPOS>MOLECULE
1471
   55    58     0     0     0
SMALL
NO_CHARGES

@<TRIPOS>ATOM
      1 O1          7.5474    1.4947    0.0000 OH        1 <0>         0.0000
      2 O2          1.6498   -1.7582    0.0000 O         1 <0>         0.0000
      3 C1          6.0987   -0.0653    0.0000 CT        1 <0>         0.0000
      4 C2          6.0987    0.7597    0.0000 CT        1 <0>         0.0000
      5 C3          5.3843   -0.4777    0.0000 CT        1 <0>         0.0000
      6 C4          4.6698   -0.0653    0.0000 CT        1 <0>         0.0000
      7 C5          6.8793    1.0111    0.0000 CT        1 <0>         0.0000
      8 C6          3.9192   -0.4833    0.0000 CT        1 <0>         0.0000
      9 C7          5.3843    1.1722    0.0000 CT        1 <0>         0.0000
     10 C8          4.6698    0.7597    0.0000 CT        1 <0>         0.0000
     11 C9          6.8793   -0.3166    0.0000 CT        1 <0>         0.0000
     12 C10         5.3975   -1.3368    0.0000 CT        1 <0>         0.0000
     13 C11         7.3606    0.3472    0.0000 CT        1 <0>         0.0000
     14 C12         4.6567   -1.7722    0.0000 CT        1 <0>         0.0000
     15 C13         3.9126   -1.3425    0.0000 CM        1 <0>         0.0000
     16 C14         6.0987    1.5846    0.0000 CT        1 <0>         0.0000
     17 C15         3.1546   -0.0180    0.0000 CT        1 <0>         0.0000
     18 C16         6.6257    1.7960    0.0000 CT        1 <0>         0.0000
     19 C17         3.9255    0.3416    0.0000 CT        1 <0>         0.0000
     20 C18         6.1167   -1.7410    0.0000 CT        1 <0>         0.0000
     21 C19         2.3727   -0.4535    0.0000 CT        1 <0>         0.0000
     22 C20         3.1409   -1.7960    0.0000 CM        1 <0>         0.0000
     23 C21         2.3658   -1.3485    0.0000 C         1 <0>         0.0000
     24 H1          6.1685   -0.7215    0.0000 HC        1 <0>         0.0000
     25 H2          5.9583   -0.8032    0.0000 HC        1 <0>         0.0000
     26 H3          5.2415    0.2647    0.0000 HC        1 <0>         0.0000
     27 H4          7.5474    1.4947    0.0000 HO        1 <0>         0.0000
     28 H5          5.3843    1.1722    0.0000 HC        1 <0>         0.0000
     29 H6          5.3843    1.1722    0.0000 HC        1 <0>         0.0000
     30 H7          4.6698    0.7597    0.0000 HC        1 <0>         0.0000
     31 H8          4.6698    0.7597    0.0000 HC        1 <0>         0.0000
     32 H9          6.8793   -0.3166    0.0000 HC        1 <0>         0.0000
     33 H10         6.8793   -0.3166    0.0000 HC        1 <0>         0.0000
     34 H11         5.3975   -1.3368    0.0000 HC        1 <0>         0.0000
     35 H12         7.3606    0.3472    0.0000 HC        1 <0>         0.0000
     36 H13         7.3606    0.3472    0.0000 HC        1 <0>         0.0000
     37 H14         4.6567   -1.7722    0.0000 HC        1 <0>         0.0000
     38 H15         4.6567   -1.7722    0.0000 HC        1 <0>         0.0000
     39 H16         6.0987    1.5846    0.0000 HC        1 <0>         0.0000
     40 H17         6.0987    1.5846    0.0000 HC        1 <0>         0.0000
     41 H18         6.0987    1.5846    0.0000 HC        1 <0>         0.0000
     42 H19         3.1546   -0.0180    0.0000 HC        1 <0>         0.0000
     43 H20         3.1546   -0.0180    0.0000 HC        1 <0>         0.0000
     44 H21         6.6257    1.7960    0.0000 HC        1 <0>         0.0000
     45 H22         6.6257    1.7960    0.0000 HC        1 <0>         0.0000
     46 H23         6.6257    1.7960    0.0000 HC        1 <0>         0.0000
     47 H24         3.9255    0.3416    0.0000 HC        1 <0>         0.0000
     48 H25         3.9255    0.3416    0.0000 HC        1 <0>         0.0000
     49 H26         3.9255    0.3416    0.0000 HC        1 <0>         0.0000
     50 H27         6.1167   -1.7410    0.0000 HC        1 <0>         0.0000
     51 H28         6.1167   -1.7410    0.0000 HC        1 <0>         0.0000
     52 H29         6.1167   -1.7410    0.0000 HC        1 <0>         0.0000
     53 H30         2.3727   -0.4535    0.0000 HC        1 <0>         0.0000
     54 H31         2.3727   -0.4535    0.0000 HC        1 <0>         0.0000
     55 H32         3.1409   -1.7960    0.0000 HA        1 <0>         0.0000
@<TRIPOS>BOND
     1    1    7 1
     2    2   23 2
     3    3    4 1
     4    3    5 1
     5    3   11 1
     6    3   24 1
     7    4    7 1
     8    4    9 1
     9    4   16 1
    10    5    6 1
    11    5   12 1
    12    5   25 1
    13    6    8 1
    14    6   10 1
    15    6   26 1
    16    7   13 1
    17    7   18 1
    18    8   15 1
    19    8   17 1
    20    8   19 1
    21    9   10 1
    22   11   13 1
    23   12   14 1
    24   12   20 1
    25   14   15 1
    26   15   22 2
    27   17   21 1
    28   21   23 1
    29   22   23 1
    30    1   27 1
    31    9   28 1
    32    9   29 1
    33   10   30 1
    34   10   31 1
    35   11   32 1
    36   11   33 1
    37   12   34 1
    38   13   35 1
    39   13   36 1
    40   14   37 1
    41   14   38 1
    42   16   39 1
    43   16   40 1
    44   16   41 1
    45   17   42 1
    46   17   43 1
    47   18   44 1
    48   18   45 1
    49   18   46 1
    50   19   47 1
    51   19   48 1
    52   19   49 1
    53   20   50 1
    54   20   51 1
    55   20   52 1
    56   21   53 1
    57   21   54 1
    58   22   55 1
@<TRIPOS>MOLECULE
1481
   49    52     0     0     0
SMALL
NO_CHARGES

@<TRIPOS>ATOM
      1 O1          7.1353    1.7429    0.0000 OH        1 <0>         0.0000
      2 O2          1.6498   -1.8105    0.0000 O         1 <0>         0.0000
      3 C1          6.0985   -0.1176    0.0000 CT        1 <0>         0.0000
      4 C2          5.3842   -0.5300    0.0000 CT        1 <0>         0.0000
      5 C3          6.0985    0.7073    0.0000 CT        1 <0>         0.0000
      6 C4          4.6697   -0.1176    0.0000 CT        1 <0>         0.0000
      7 C5          3.9191   -0.5356    0.0000 CT        1 <0>         0.0000
      8 C6          5.3842    1.1197    0.0000 CT        1 <0>         0.0000
      9 C7          4.6697    0.7073    0.0000 CT        1 <0>         0.0000
     10 C8          6.8790    0.9588    0.0000 CT        1 <0>         0.0000
     11 C9          6.8790   -0.3689    0.0000 CT        1 <0>         0.0000
     12 C10         5.3974   -1.3891    0.0000 CT        1 <0>         0.0000
     13 C11         3.9125   -1.3948    0.0000 CT        1 <0>         0.0000
     14 C12         7.3604    0.2949    0.0000 CT        1 <0>         0.0000
     15 C13         4.6566   -1.8245    0.0000 CT        1 <0>         0.0000
     16 C14         6.0985    1.5322    0.0000 CT        1 <0>         0.0000
     17 C15         3.9254    0.2893    0.0000 CT        1 <0>         0.0000
     18 C16         3.1546   -0.0703    0.0000 CM        1 <0>         0.0000
     19 C17         3.1409   -1.8482    0.0000 CT        1 <0>         0.0000
     20 C18         2.3726   -0.5058    0.0000 CM        1 <0>         0.0000
     21 C19         2.3657   -1.4007    0.0000 C         1 <0>         0.0000
     22 H1          6.1683   -0.7738    0.0000 HC        1 <0>         0.0000
     23 H2          5.9581   -0.8555    0.0000 HC        1 <0>         0.0000
     24 H3          5.2413    0.2124    0.0000 HC        1 <0>         0.0000
     25 H4          3.9150   -2.0547    0.0000 HC        1 <0>         0.0000
     26 H5          7.1353    1.7429    0.0000 HO        1 <0>         0.0000
     27 H6          5.3842    1.1197    0.0000 HC        1 <0>         0.0000
     28 H7          5.3842    1.1197    0.0000 HC        1 <0>         0.0000
     29 H8          4.6697    0.7073    0.0000 HC        1 <0>         0.0000
     30 H9          4.6697    0.7073    0.0000 HC        1 <0>         0.0000
     31 H10         6.8790    0.9588    0.0000 H1        1 <0>         0.0000
     32 H11         6.8790   -0.3689    0.0000 HC        1 <0>         0.0000
     33 H12         6.8790   -0.3689    0.0000 HC        1 <0>         0.0000
     34 H13         5.3974   -1.3891    0.0000 HC        1 <0>         0.0000
     35 H14         5.3974   -1.3891    0.0000 HC        1 <0>         0.0000
     36 H15         7.3604    0.2949    0.0000 HC        1 <0>         0.0000
     37 H16         7.3604    0.2949    0.0000 HC        1 <0>         0.0000
     38 H17         4.6566   -1.8245    0.0000 HC        1 <0>         0.0000
     39 H18         4.6566   -1.8245    0.0000 HC        1 <0>         0.0000
     40 H19         6.0985    1.5322    0.0000 HC        1 <0>         0.0000
     41 H20         6.0985    1.5322    0.0000 HC        1 <0>         0.0000
     42 H21         6.0985    1.5322    0.0000 HC        1 <0>         0.0000
     43 H22         3.9254    0.2893    0.0000 HC        1 <0>         0.0000
     44 H23         3.9254    0.2893    0.0000 HC        1 <0>         0.0000
     45 H24         3.9254    0.2893    0.0000 HC        1 <0>         0.0000
     46 H25         3.1546   -0.0703    0.0000 HA        1 <0>         0.0000
     47 H26         3.1409   -1.8482    0.0000 HC        1 <0>         0.0000
     48 H27         3.1409   -1.8482    0.0000 HC        1 <0>         0.0000
     49 H28         2.3726   -0.5058    0.0000 HA        1 <0>         0.0000
@<TRIPOS>BOND
     1    1   10 1
     2    2   21 2
     3    3    4 1
     4    3    5 1
     5    3   11 1
     6    3   22 1
     7    4    6 1
     8    4   12 1
     9    4   23 1
    10    5    8 1
    11    5   10 1
    12    5   16 1
    13    6    7 1
    14    6    9 1
    15    6   24 1
    16    7   13 1
    17    7   17 1
    18    7   18 1
    19    8    9 1
    20   10   14 1
    21   11   14 1
    22   12   15 1
    23   13   15 1
    24   13   19 1
    25   13   25 1
    26   18   20 2
    27   19   21 1
    28   20   21 1
    29    1   26 1
    30    8   27 1
    31    8   28 1
    32    9   29 1
    33    9   30 1
    34   10   31 1
    35   11   32 1
    36   11   33 1
    37   12   34 1
    38   12   35 1
    39   14   36 1
    40   14   37 1
    41   15   38 1
    42   15   39 1
    43   16   40 1
    44   16   41 1
    45   16   42 1
    46   17   43 1
    47   17   44 1
    48   17   45 1
    49   18   46 1
    50   19   47 1
    51   19   48 1
    52   20   49 1
@<TRIPOS>MOLECULE
1493
   53    56     0     0     0
SMALL
NO_CHARGES

@<TRIPOS>ATOM
      1 O1          6.8323    1.1889    0.0000 OH        1 <0>         0.0000
      2 C1          5.3833    0.4537    0.0000 CT        1 <0>         0.0000
      3 C2          5.3833   -0.3713    0.0000 CT        1 <0>         0.0000
      4 C3          4.6689   -0.7838    0.0000 CT        1 <0>         0.0000
      5 C4          3.9544   -0.3713    0.0000 CT        1 <0>         0.0000
      6 C5          6.1640    0.7051    0.0000 CT        1 <0>         0.0000
      7 C6          4.6689    0.8662    0.0000 CT        1 <0>         0.0000
      8 C7          6.1640   -0.6227    0.0000 CT        1 <0>         0.0000
      9 C8          3.9544    0.4537    0.0000 CT        1 <0>         0.0000
     10 C9          6.6455    0.0412    0.0000 CT        1 <0>         0.0000
     11 C10         3.2036   -0.7895    0.0000 CT        1 <0>         0.0000
     12 C11         4.6821   -1.6431    0.0000 CT        1 <0>         0.0000
     13 C12         5.3833    1.2787    0.0000 CT        1 <0>         0.0000
     14 C13         5.9104    1.4902    0.0000 CT        1 <0>         0.0000
     15 C14         3.9412   -2.0785    0.0000 CT        1 <0>         0.0000
     16 C15         3.1970   -1.6488    0.0000 CM        1 <0>         0.0000
     17 C16         2.4389   -0.3241    0.0000 CT        1 <0>         0.0000
     18 C17         1.6570   -0.7597    0.0000 CT        1 <0>         0.0000
     19 C18         2.4252   -2.1023    0.0000 CM        1 <0>         0.0000
     20 C19         6.4635    2.1023    0.0000 CT        1 <0>         0.0000
     21 C20         1.6500   -1.6547    0.0000 CT        1 <0>         0.0000
     22 H1          5.4532   -1.0276    0.0000 HC        1 <0>         0.0000
     23 H2          5.2430   -1.1094    0.0000 HC        1 <0>         0.0000
     24 H3          4.5260   -0.0413    0.0000 HC        1 <0>         0.0000
     25 H4          3.2163   -0.1296    0.0000 HC        1 <0>         0.0000
     26 H5          6.8323    1.1889    0.0000 HO        1 <0>         0.0000
     27 H6          4.6689    0.8662    0.0000 HC        1 <0>         0.0000
     28 H7          4.6689    0.8662    0.0000 HC        1 <0>         0.0000
     29 H8          6.1640   -0.6227    0.0000 HC        1 <0>         0.0000
     30 H9          6.1640   -0.6227    0.0000 HC        1 <0>         0.0000
     31 H10         3.9544    0.4537    0.0000 HC        1 <0>         0.0000
     32 H11         3.9544    0.4537    0.0000 HC        1 <0>         0.0000
     33 H12         6.6455    0.0412    0.0000 HC        1 <0>         0.0000
     34 H13         6.6455    0.0412    0.0000 HC        1 <0>         0.0000
     35 H14         4.6821   -1.6431    0.0000 HC        1 <0>         0.0000
     36 H15         4.6821   -1.6431    0.0000 HC        1 <0>         0.0000
     37 H16         5.3833    1.2787    0.0000 HC        1 <0>         0.0000
     38 H17         5.3833    1.2787    0.0000 HC        1 <0>         0.0000
     39 H18         5.3833    1.2787    0.0000 HC        1 <0>         0.0000
     40 H19         5.9104    1.4902    0.0000 HC        1 <0>         0.0000
     41 H20         5.9104    1.4902    0.0000 HC        1 <0>         0.0000
     42 H21         3.9412   -2.0785    0.0000 HC        1 <0>         0.0000
     43 H22         3.9412   -2.0785    0.0000 HC        1 <0>         0.0000
     44 H23         2.4389   -0.3241    0.0000 HC        1 <0>         0.0000
     45 H24         2.4389   -0.3241    0.0000 HC        1 <0>         0.0000
     46 H25         1.6570   -0.7597    0.0000 HC        1 <0>         0.0000
     47 H26         1.6570   -0.7597    0.0000 HC        1 <0>         0.0000
     48 H27         2.4252   -2.1023    0.0000 HA        1 <0>         0.0000
     49 H28         6.4635    2.1023    0.0000 HC        1 <0>         0.0000
     50 H29         6.4635    2.1023    0.0000 HC        1 <0>         0.0000
     51 H30         6.4635    2.1023    0.0000 HC        1 <0>         0.0000
     52 H31         1.6500   -1.6547    0.0000 HC        1 <0>         0.0000
     53 H32         1.6500   -1.6547    0.0000 HC        1 <0>         0.0000
@<TRIPOS>BOND
     1    1    6 1
     2    2    3 1
     3    2    6 1
     4    2    7 1
     5    2   13 1
     6    3    4 1
     7    3    8 1
     8    3   22 1
     9    4    5 1
    10    4   12 1
    11    4   23 1
    12    5    9 1
    13    5   11 1
    14    5   24 1
    15    6   10 1
    16    6   14 1
    17    7    9 1
    18    8   10 1
    19   11   16 1
    20   11   17 1
    21   11   25 1
    22   12   15 1
    23   14   20 1
    24   15   16 1
    25   16   19 2
    26   17   18 1
    27   18   21 1
    28   19   21 1
    29    1   26 1
    30    7   27 1
    31    7   28 1
    32    8   29 1
    33    8   30 1
    34    9   31 1
    35    9   32 1
    36   10   33 1
    37   10   34 1
    38   12   35 1
    39   12   36 1
    40   13   37 1
    41   13   38 1
    42   13   39 1
    43   14   40 1
    44   14   41 1
    45   15   42 1
    46   15   43 1
    47   17   44 1
    48   17   45 1
    49   18   46 1
    50   18   47 1
    51   19   48 1
    52   20   49 1
    53   20   50 1
    54   20   51 1
    55   21   52 1
    56   21   53 1
@<TRIPOS>MOLECULE
*****
   47    50     0     0     0
SMALL
NO_CHARGES

@<TRIPOS>ATOM
      1 C1         -0.6410   -0.1114    0.0000 CT        1 <0>         0.0000
      2 C2         -0.6410   -0.9364    0.0000 CM        1 <0>         0.0000
      3 C3         -1.3544    0.3121    0.0000 CT        1 <0>         0.0000
      4 C4         -1.3544   -1.3433    0.0000 CM        1 <0>         0.0000
      5 C5         -2.0623   -0.1114    0.0000 CT        1 <0>         0.0000
      6 C6         -2.0623   -0.9364    0.0000 C         1 <0>         0.0000
      7 C7          0.0836    0.3121    0.0000 CT        1 <0>         0.0000
      8 C8          0.7915   -0.1114    0.0000 CT        1 <0>         0.0000
      9 C9          0.0836   -1.3433    0.0000 CT        1 <0>         0.0000
     10 C10         0.7915   -0.9364    0.0000 CT        1 <0>         0.0000
     11 C11         0.0836    1.1371    0.0000 CT        1 <0>         0.0000
     12 C12         0.7915    1.5440    0.0000 CT        1 <0>         0.0000
     13 C13         1.5160    0.3121    0.0000 CT        1 <0>         0.0000
     14 C14         1.5160    1.1371    0.0000 CT        1 <0>         0.0000
     15 C15         2.2965    0.0557    0.0000 CT        1 <0>         0.0000
     16 C16         2.7870    0.7190    0.0000 CT        1 <0>         0.0000
     17 C17         2.2965    1.3935    0.0000 CT        1 <0>         0.0000
     18 O1         -2.7870   -1.3433    0.0000 O         1 <0>         0.0000
     19 O2         -1.3544   -2.1739    0.0000 OH        1 <0>         0.0000
     20 O3          2.5529    2.1739    0.0000 OH        1 <0>         0.0000
     21 C18         1.5160    1.9676    0.0000 CT        1 <0>         0.0000
     22 H1         -0.6410    0.7190    0.0000 HC        1 <0>         0.0000
     23 H2          0.0836   -0.5184    0.0000 HC        1 <0>         0.0000
     24 H3          0.7915    0.7190    0.0000 HC        1 <0>         0.0000
     25 H4          1.5160   -0.5184    0.0000 HC        1 <0>         0.0000
     26 H5         -1.3544    0.3121    0.0000 HC        1 <0>         0.0000
     27 H6         -1.3544    0.3121    0.0000 HC        1 <0>         0.0000
     28 H7         -2.0623   -0.1114    0.0000 HC        1 <0>         0.0000
     29 H8         -2.0623   -0.1114    0.0000 HC        1 <0>         0.0000
     30 H9          0.0836   -1.3433    0.0000 HC        1 <0>         0.0000
     31 H10         0.0836   -1.3433    0.0000 HC        1 <0>         0.0000
     32 H11         0.7915   -0.9364    0.0000 HC        1 <0>         0.0000
     33 H12         0.7915   -0.9364    0.0000 HC        1 <0>         0.0000
     34 H13         0.0836    1.1371    0.0000 HC        1 <0>         0.0000
     35 H14         0.0836    1.1371    0.0000 HC        1 <0>         0.0000
     36 H15         0.7915    1.5440    0.0000 HC        1 <0>         0.0000
     37 H16         0.7915    1.5440    0.0000 HC        1 <0>         0.0000
     38 H17         2.2965    0.0557    0.0000 HC        1 <0>         0.0000
     39 H18         2.2965    0.0557    0.0000 HC        1 <0>         0.0000
     40 H19         2.7870    0.7190    0.0000 HC        1 <0>         0.0000
     41 H20         2.7870    0.7190    0.0000 HC        1 <0>         0.0000
     42 H21         2.2965    1.3935    0.0000 H1        1 <0>         0.0000
     43 H22        -1.3544   -2.1739    0.0000 HO        1 <0>         0.0000
     44 H23         2.5529    2.1739    0.0000 HO        1 <0>         0.0000
     45 H24         1.5160    1.9676    0.0000 HC        1 <0>         0.0000
     46 H25         1.5160    1.9676    0.0000 HC        1 <0>         0.0000
     47 H26         1.5160    1.9676    0.0000 HC        1 <0>         0.0000
@<TRIPOS>BOND
     1    1    3 1
     2    1    7 1
     3    1    2 1
     4    1   22 1
     5    2    4 2
     6    2    9 1
     7    3    5 1
     8    4    6 1
     9    4   19 1
    10    5    6 1
    11    6   18 2
    12    7   11 1
    13    7    8 1
    14    7   23 1
    15    8   10 1
    16    8   13 1
    17    8   24 1
    18    9   10 1
    19   11   12 1
    20   12   14 1
    21   13   15 1
    22   13   14 1
    23   13   25 1
    24   14   17 1
    25   14   21 1
    26   15   16 1
    27   16   17 1
    28   17   20 1
    29    3   26 1
    30    3   27 1
    31    5   28 1
    32    5   29 1
    33    9   30 1
    34    9   31 1
    35   10   32 1
    36   10   33 1
    37   11   34 1
    38   11   35 1
    39   12   36 1
    40   12   37 1
    41   15   38 1
    42   15   39 1
    43   16   40 1
    44   16   41 1
    45   17   42 1
    46   19   43 1
    47   20   44 1
    48   21   45 1
    49   21   46 1
    50   21   47 1
@<TRIPOS>MOLECULE
HMDB03818.mol
   51    54     0     0     0
SMALL
NO_CHARGES

@<TRIPOS>ATOM
      1 C1         -2.0637   -0.5198    0.0000 CT        1 <0>         0.0000
      2 C2         -2.0637   -1.3448    0.0000 CT        1 <0>         0.0000
      3 C3         -1.3492   -1.7573    0.0000 CT        1 <0>         0.0000
      4 C4         -0.6348   -1.3448    0.0000 CM        1 <0>         0.0000
      5 C5         -0.6348   -0.5198    0.0000 CT        1 <0>         0.0000
      6 C6         -1.3492   -0.1073    0.0000 CT        1 <0>         0.0000
      7 C7          0.0797   -1.7573    0.0000 CM        1 <0>         0.0000
      8 C8          0.7942   -1.3448    0.0000 CT        1 <0>         0.0000
      9 C9          0.7942   -0.5198    0.0000 CT        1 <0>         0.0000
     10 C10         0.0797   -0.1073    0.0000 CT        1 <0>         0.0000
     11 C11         1.5086   -0.1073    0.0000 CT        1 <0>         0.0000
     12 C12         1.5086    0.7177    0.0000 CT        1 <0>         0.0000
     13 C13         0.7942    1.1302    0.0000 CT        1 <0>         0.0000
     14 C14         0.0797    0.7177    0.0000 CT        1 <0>         0.0000
     15 C15         2.2933   -0.3622    0.0000 CT        1 <0>         0.0000
     16 C16         2.7782    0.3052    0.0000 CT        1 <0>         0.0000
     17 C17         2.2933    0.9727    0.0000 CT        1 <0>         0.0000
     18 C18        -0.6348    0.3052    0.0000 CT        1 <0>         0.0000
     19 O1         -2.7782   -1.7573    0.0000 OH        1 <0>         0.0000
     20 C19         1.5949    1.5382    0.0000 CT        1 <0>         0.0000
     21 O2          2.5482    1.7573    0.0000 OH        1 <0>         0.0000
     22 H1          0.7942    0.3052    0.0000 HC        1 <0>         0.0000
     23 H2          0.0797   -0.9323    0.0000 HC        1 <0>         0.0000
     24 H3          1.5086   -0.9323    0.0000 HC        1 <0>         0.0000
     25 H4         -2.0637   -0.5198    0.0000 HC        1 <0>         0.0000
     26 H5         -2.0637   -0.5198    0.0000 HC        1 <0>         0.0000
     27 H6         -2.0637   -1.3448    0.0000 H1        1 <0>         0.0000
     28 H7         -1.3492   -1.7573    0.0000 HC        1 <0>         0.0000
     29 H8         -1.3492   -1.7573    0.0000 HC        1 <0>         0.0000
     30 H9         -1.3492   -0.1073    0.0000 HC        1 <0>         0.0000
     31 H10        -1.3492   -0.1073    0.0000 HC        1 <0>         0.0000
     32 H11         0.0797   -1.7573    0.0000 HA        1 <0>         0.0000
     33 H12         0.7942   -1.3448    0.0000 HC        1 <0>         0.0000
     34 H13         0.7942   -1.3448    0.0000 HC        1 <0>         0.0000
     35 H14         0.7942    1.1302    0.0000 HC        1 <0>         0.0000
     36 H15         0.7942    1.1302    0.0000 HC        1 <0>         0.0000
     37 H16         0.0797    0.7177    0.0000 HC        1 <0>         0.0000
     38 H17         0.0797    0.7177    0.0000 HC        1 <0>         0.0000
     39 H18         2.2933   -0.3622    0.0000 HC        1 <0>         0.0000
     40 H19         2.2933   -0.3622    0.0000 HC        1 <0>         0.0000
     41 H20         2.7782    0.3052    0.0000 HC        1 <0>         0.0000
     42 H21         2.7782    0.3052    0.0000 HC        1 <0>         0.0000
     43 H22         2.2933    0.9727    0.0000 H1        1 <0>         0.0000
     44 H23        -0.6348    0.3052    0.0000 HC        1 <0>         0.0000
     45 H24        -0.6348    0.3052    0.0000 HC        1 <0>         0.0000
     46 H25        -0.6348    0.3052    0.0000 HC        1 <0>         0.0000
     47 H26        -2.7782   -1.7573    0.0000 HO        1 <0>         0.0000
     48 H27         1.5949    1.5382    0.0000 HC        1 <0>         0.0000
     49 H28         1.5949    1.5382    0.0000 HC        1 <0>         0.0000
     50 H29         1.5949    1.5382    0.0000 HC        1 <0>         0.0000
     51 H30         2.5482    1.7573    0.0000 HO        1 <0>         0.0000
@<TRIPOS>BOND
     1    1    2 1
     2    2    3 1
     3    3    4 1
     4    4    5 1
     5    5    6 1
     6    1    6 1
     7    4    7 2
     8    7    8 1
     9    8    9 1
    10    9   10 1
    11    5   10 1
    12    9   11 1
    13   11   12 1
    14   12   13 1
    15   13   14 1
    16   10   14 1
    17   11   15 1
    18   15   16 1
    19   16   17 1
    20   12   17 1
    21    5   18 1
    22    2   19 1
    23   12   20 1
    24   17   21 1
    25    9   22 1
    26   10   23 1
    27   11   24 1
    28    1   25 1
    29    1   26 1
    30    2   27 1
    31    3   28 1
    32    3   29 1
    33    6   30 1
    34    6   31 1
    35    7   32 1
    36    8   33 1
    37    8   34 1
    38   13   35 1
    39   13   36 1
    40   14   37 1
    41   14   38 1
    42   15   39 1
    43   15   40 1
    44   16   41 1
    45   16   42 1
    46   17   43 1
    47   18   44 1
    48   18   45 1
    49   18   46 1
    50   19   47 1
    51   20   48 1
    52   20   49 1
    53   20   50 1
    54   21   51 1
@<TRIPOS>MOLECULE
1526
   51    54     0     0     0
SMALL
NO_CHARGES

@<TRIPOS>ATOM
      1 O1          7.5775    1.7429    0.0000 OH        1 <0>         0.0000
      2 O2          2.0917   -1.8105    0.0000 OH        1 <0>         0.0000
      3 C1          6.5406   -0.1176    0.0000 CT        1 <0>         0.0000
      4 C2          5.8262   -0.5300    0.0000 CT        1 <0>         0.0000
      5 C3          6.5406    0.7074    0.0000 CT        1 <0>         0.0000
      6 C4          5.1119   -0.1176    0.0000 CT        1 <0>         0.0000
      7 C5          4.3612   -0.5356    0.0000 CT        1 <0>         0.0000
      8 C6          5.8262    1.1199    0.0000 CT        1 <0>         0.0000
      9 C7          5.1119    0.7074    0.0000 CT        1 <0>         0.0000
     10 C8          7.3211    0.9588    0.0000 CT        1 <0>         0.0000
     11 C9          7.3211   -0.3689    0.0000 CT        1 <0>         0.0000
     12 C10         5.8395   -1.3891    0.0000 CT        1 <0>         0.0000
     13 C11         7.8026    0.2949    0.0000 CT        1 <0>         0.0000
     14 C12         4.3545   -1.3948    0.0000 CM        1 <0>         0.0000
     15 C13         5.0987   -1.8245    0.0000 CT        1 <0>         0.0000
     16 C14         3.5966   -0.0703    0.0000 CT        1 <0>         0.0000
     17 C15         6.5406    1.5323    0.0000 CT        1 <0>         0.0000
     18 C16         4.3676    0.2893    0.0000 CT        1 <0>         0.0000
     19 C17         2.8147   -0.5058    0.0000 CT        1 <0>         0.0000
     20 C18         3.5829   -1.8483    0.0000 CM        1 <0>         0.0000
     21 C19         2.8078   -1.4008    0.0000 CT        1 <0>         0.0000
     22 H1          6.6105   -0.7738    0.0000 HC        1 <0>         0.0000
     23 H2          6.4003   -0.8555    0.0000 HC        1 <0>         0.0000
     24 H3          5.6833    0.2124    0.0000 HC        1 <0>         0.0000
     25 H4          7.5775    1.7429    0.0000 HO        1 <0>         0.0000
     26 H5          2.0917   -1.8105    0.0000 HO        1 <0>         0.0000
     27 H6          5.8262    1.1199    0.0000 HC        1 <0>         0.0000
     28 H7          5.8262    1.1199    0.0000 HC        1 <0>         0.0000
     29 H8          5.1119    0.7074    0.0000 HC        1 <0>         0.0000
     30 H9          5.1119    0.7074    0.0000 HC        1 <0>         0.0000
     31 H10         7.3211    0.9588    0.0000 H1        1 <0>         0.0000
     32 H11         7.3211   -0.3689    0.0000 HC        1 <0>         0.0000
     33 H12         7.3211   -0.3689    0.0000 HC        1 <0>         0.0000
     34 H13         5.8395   -1.3891    0.0000 HC        1 <0>         0.0000
     35 H14         5.8395   -1.3891    0.0000 HC        1 <0>         0.0000
     36 H15         7.8026    0.2949    0.0000 HC        1 <0>         0.0000
     37 H16         7.8026    0.2949    0.0000 HC        1 <0>         0.0000
     38 H17         5.0987   -1.8245    0.0000 HC        1 <0>         0.0000
     39 H18         5.0987   -1.8245    0.0000 HC        1 <0>         0.0000
     40 H19         3.5966   -0.0703    0.0000 HC        1 <0>         0.0000
     41 H20         3.5966   -0.0703    0.0000 HC        1 <0>         0.0000
     42 H21         6.5406    1.5323    0.0000 HC        1 <0>         0.0000
     43 H22         6.5406    1.5323    0.0000 HC        1 <0>         0.0000
     44 H23         6.5406    1.5323    0.0000 HC        1 <0>         0.0000
     45 H24         4.3676    0.2893    0.0000 HC        1 <0>         0.0000
     46 H25         4.3676    0.2893    0.0000 HC        1 <0>         0.0000
     47 H26         4.3676    0.2893    0.0000 HC        1 <0>         0.0000
     48 H27         2.8147   -0.5058    0.0000 HC        1 <0>         0.0000
     49 H28         2.8147   -0.5058    0.0000 HC        1 <0>         0.0000
     50 H29         3.5829   -1.8483    0.0000 HA        1 <0>         0.0000
     51 H30         2.8078   -1.4008    0.0000 H1        1 <0>         0.0000
@<TRIPOS>BOND
     1    1   10 1
     2    2   21 1
     3    3    4 1
     4    3    5 1
     5    3   11 1
     6    3   22 1
     7    4    6 1
     8    4   12 1
     9    4   23 1
    10    5    8 1
    11    5   10 1
    12    5   17 1
    13    6    7 1
    14    6    9 1
    15    6   24 1
    16    7   14 1
    17    7   16 1
    18    7   18 1
    19    8    9 1
    20   10   13 1
    21   11   13 1
    22   12   15 1
    23   14   15 1
    24   14   20 2
    25   16   19 1
    26   19   21 1
    27   20   21 1
    28    1   25 1
    29    2   26 1
    30    8   27 1
    31    8   28 1
    32    9   29 1
    33    9   30 1
    34   10   31 1
    35   11   32 1
    36   11   33 1
    37   12   34 1
    38   12   35 1
    39   13   36 1
    40   13   37 1
    41   15   38 1
    42   15   39 1
    43   16   40 1
    44   16   41 1
    45   17   42 1
    46   17   43 1
    47   17   44 1
    48   18   45 1
    49   18   46 1
    50   18   47 1
    51   19   48 1
    52   19   49 1
    53   20   50 1
    54   21   51 1
@<TRIPOS>MOLECULE
5a-Androstane-3a,17b-diol.mol
   53    56     0     0     0
SMALL
NO_CHARGES

@<TRIPOS>ATOM
      1 C1         -2.0637   -1.1385    0.0000 CT        1 <0>         0.0000
      2 C2         -2.0637   -0.3135    0.0000 CT        1 <0>         0.0000
      3 C3         -1.3492    0.0990    0.0000 CT        1 <0>         0.0000
      4 C4         -1.3492   -1.5510    0.0000 CT        1 <0>         0.0000
      5 C5         -0.6348   -1.1385    0.0000 CT        1 <0>         0.0000
      6 C6          0.0797   -1.5510    0.0000 CT        1 <0>         0.0000
      7 C7          0.7942   -1.1385    0.0000 CT        1 <0>         0.0000
      8 C8          0.7942   -0.3135    0.0000 CT        1 <0>         0.0000
      9 C9          1.5086    0.0990    0.0000 CT        1 <0>         0.0000
     10 C10         2.2933   -0.1560    0.0000 CT        1 <0>         0.0000
     11 C11         2.7782    0.5115    0.0000 CT        1 <0>         0.0000
     12 C12         2.2933    1.1789    0.0000 CT        1 <0>         0.0000
     13 C13         1.5086    0.9240    0.0000 CT        1 <0>         0.0000
     14 C14         1.5086    1.7490    0.0000 CT        1 <0>         0.0000
     15 C15         0.7942    1.3365    0.0000 CT        1 <0>         0.0000
     16 C16         0.0797    0.9240    0.0000 CT        1 <0>         0.0000
     17 C17         0.0797    0.0990    0.0000 CT        1 <0>         0.0000
     18 C18        -0.6348   -0.3135    0.0000 CT        1 <0>         0.0000
     19 C19        -0.6348    0.5115    0.0000 CT        1 <0>         0.0000
     20 O1         -2.7782   -1.5510    0.0000 OH        1 <0>         0.0000
     21 O2          2.5482    1.9635    0.0000 OH        1 <0>         0.0000
     22 H1         -0.6348   -1.9635    0.0000 HC        1 <0>         0.0000
     23 H2          0.0797   -0.7260    0.0000 HC        1 <0>         0.0000
     24 H3          0.7942    0.5115    0.0000 HC        1 <0>         0.0000
     25 H4          1.5086   -0.7260    0.0000 HC        1 <0>         0.0000
     26 H5         -2.0637   -1.1385    0.0000 H1        1 <0>         0.0000
     27 H6         -2.0637   -0.3135    0.0000 HC        1 <0>         0.0000
     28 H7         -2.0637   -0.3135    0.0000 HC        1 <0>         0.0000
     29 H8         -1.3492    0.0990    0.0000 HC        1 <0>         0.0000
     30 H9         -1.3492    0.0990    0.0000 HC        1 <0>         0.0000
     31 H10        -1.3492   -1.5510    0.0000 HC        1 <0>         0.0000
     32 H11        -1.3492   -1.5510    0.0000 HC        1 <0>         0.0000
     33 H12         0.0797   -1.5510    0.0000 HC        1 <0>         0.0000
     34 H13         0.0797   -1.5510    0.0000 HC        1 <0>         0.0000
     35 H14         0.7942   -1.1385    0.0000 HC        1 <0>         0.0000
     36 H15         0.7942   -1.1385    0.0000 HC        1 <0>         0.0000
     37 H16         2.2933   -0.1560    0.0000 HC        1 <0>         0.0000
     38 H17         2.2933   -0.1560    0.0000 HC        1 <0>         0.0000
     39 H18         2.7782    0.5115    0.0000 HC        1 <0>         0.0000
     40 H19         2.7782    0.5115    0.0000 HC        1 <0>         0.0000
     41 H20         2.2933    1.1789    0.0000 H1        1 <0>         0.0000
     42 H21         1.5086    1.7490    0.0000 HC        1 <0>         0.0000
     43 H22         1.5086    1.7490    0.0000 HC        1 <0>         0.0000
     44 H23         1.5086    1.7490    0.0000 HC        1 <0>         0.0000
     45 H24         0.7942    1.3365    0.0000 HC        1 <0>         0.0000
     46 H25         0.7942    1.3365    0.0000 HC        1 <0>         0.0000
     47 H26         0.0797    0.9240    0.0000 HC        1 <0>         0.0000
     48 H27         0.0797    0.9240    0.0000 HC        1 <0>         0.0000
     49 H28        -0.6348    0.5115    0.0000 HC        1 <0>         0.0000
     50 H29        -0.6348    0.5115    0.0000 HC        1 <0>         0.0000
     51 H30        -0.6348    0.5115    0.0000 HC        1 <0>         0.0000
     52 H31        -2.7782   -1.5510    0.0000 HO        1 <0>         0.0000
     53 H32         2.5482    1.9635    0.0000 HO        1 <0>         0.0000
@<TRIPOS>BOND
     1    1    2 1
     2    2    3 1
     3    1    4 1
     4    4    5 1
     5    5    6 1
     6    6    7 1
     7    7    8 1
     8    8    9 1
     9    9   10 1
    10   10   11 1
    11   11   12 1
    12   12   13 1
    13    9   13 1
    14   13   14 1
    15   13   15 1
    16   15   16 1
    17   16   17 1
    18    8   17 1
    19   17   18 1
    20    3   18 1
    21    5   18 1
    22   18   19 1
    23    1   20 1
    24   12   21 1
    25    5   22 1
    26   17   23 1
    27    8   24 1
    28    9   25 1
    29    1   26 1
    30    2   27 1
    31    2   28 1
    32    3   29 1
    33    3   30 1
    34    4   31 1
    35    4   32 1
    36    6   33 1
    37    6   34 1
    38    7   35 1
    39    7   36 1
    40   10   37 1
    41   10   38 1
    42   11   39 1
    43   11   40 1
    44   12   41 1
    45   14   42 1
    46   14   43 1
    47   14   44 1
    48   15   45 1
    49   15   46 1
    50   16   47 1
    51   16   48 1
    52   19   49 1
    53   19   50 1
    54   19   51 1
    55   20   52 1
    56   21   53 1
@<TRIPOS>MOLECULE
1536
   47    50     0     0     0
SMALL
NO_CHARGES

@<TRIPOS>ATOM
      1 O1          7.1353    1.7956    0.0000 O         1 <0>         0.0000
      2 O2          1.6498   -1.7578    0.0000 O         1 <0>         0.0000
      3 C1          5.3842   -0.4772    0.0000 CT        1 <0>         0.0000
      4 C2          4.6697   -0.0648    0.0000 CT        1 <0>         0.0000
      5 C3          6.0985   -0.0648    0.0000 CT        1 <0>         0.0000
      6 C4          6.0985    0.7601    0.0000 CT        1 <0>         0.0000
      7 C5          3.9191   -0.4829    0.0000 CT        1 <0>         0.0000
      8 C6          4.6697    0.7601    0.0000 CT        1 <0>         0.0000
      9 C7          5.3842    1.1725    0.0000 CT        1 <0>         0.0000
     10 C8          5.3974   -1.3363    0.0000 CT        1 <0>         0.0000
     11 C9          6.8790   -0.3162    0.0000 CT        1 <0>         0.0000
     12 C10         3.9125   -1.3421    0.0000 CM        1 <0>         0.0000
     13 C11         6.8790    1.0115    0.0000 C         1 <0>         0.0000
     14 C12         4.6566   -1.7717    0.0000 CT        1 <0>         0.0000
     15 C13         7.3604    0.3477    0.0000 CT        1 <0>         0.0000
     16 C14         3.1546   -0.0176    0.0000 CT        1 <0>         0.0000
     17 C15         6.0985    1.5850    0.0000 CT        1 <0>         0.0000
     18 C16         3.9254    0.3420    0.0000 CT        1 <0>         0.0000
     19 C17         2.3726   -0.4531    0.0000 CT        1 <0>         0.0000
     20 C18         3.1409   -1.7956    0.0000 CM        1 <0>         0.0000
     21 C19         2.3657   -1.3480    0.0000 C         1 <0>         0.0000
     22 H1          5.9581   -0.8028    0.0000 HC        1 <0>         0.0000
     23 H2          5.2413    0.2652    0.0000 HC        1 <0>         0.0000
     24 H3          6.1683   -0.7210    0.0000 HC        1 <0>         0.0000
     25 H4          4.6697    0.7601    0.0000 HC        1 <0>         0.0000
     26 H5          4.6697    0.7601    0.0000 HC        1 <0>         0.0000
     27 H6          5.3842    1.1725    0.0000 HC        1 <0>         0.0000
     28 H7          5.3842    1.1725    0.0000 HC        1 <0>         0.0000
     29 H8          5.3974   -1.3363    0.0000 HC        1 <0>         0.0000
     30 H9          5.3974   -1.3363    0.0000 HC        1 <0>         0.0000
     31 H10         6.8790   -0.3162    0.0000 HC        1 <0>         0.0000
     32 H11         6.8790   -0.3162    0.0000 HC        1 <0>         0.0000
     33 H12         4.6566   -1.7717    0.0000 HC        1 <0>         0.0000
     34 H13         4.6566   -1.7717    0.0000 HC        1 <0>         0.0000
     35 H14         7.3604    0.3477    0.0000 HC        1 <0>         0.0000
     36 H15         7.3604    0.3477    0.0000 HC        1 <0>         0.0000
     37 H16         3.1546   -0.0176    0.0000 HC        1 <0>         0.0000
     38 H17         3.1546   -0.0176    0.0000 HC        1 <0>         0.0000
     39 H18         6.0985    1.5850    0.0000 HC        1 <0>         0.0000
     40 H19         6.0985    1.5850    0.0000 HC        1 <0>         0.0000
     41 H20         6.0985    1.5850    0.0000 HC        1 <0>         0.0000
     42 H21         3.9254    0.3420    0.0000 HC        1 <0>         0.0000
     43 H22         3.9254    0.3420    0.0000 HC        1 <0>         0.0000
     44 H23         3.9254    0.3420    0.0000 HC        1 <0>         0.0000
     45 H24         2.3726   -0.4531    0.0000 HC        1 <0>         0.0000
     46 H25         2.3726   -0.4531    0.0000 HC        1 <0>         0.0000
     47 H26         3.1409   -1.7956    0.0000 HA        1 <0>         0.0000
@<TRIPOS>BOND
     1    1   13 2
     2    2   21 2
     3    3    4 1
     4    3    5 1
     5    3   10 1
     6    3   22 1
     7    4    7 1
     8    4    8 1
     9    4   23 1
    10    5    6 1
    11    5   11 1
    12    5   24 1
    13    6    9 1
    14    6   13 1
    15    6   17 1
    16    7   12 1
    17    7   16 1
    18    7   18 1
    19    8    9 1
    20   10   14 1
    21   11   15 1
    22   12   14 1
    23   12   20 2
    24   13   15 1
    25   16   19 1
    26   19   21 1
    27   20   21 1
    28    8   25 1
    29    8   26 1
    30    9   27 1
    31    9   28 1
    32   10   29 1
    33   10   30 1
    34   11   31 1
    35   11   32 1
    36   14   33 1
    37   14   34 1
    38   15   35 1
    39   15   36 1
    40   16   37 1
    41   16   38 1
    42   17   39 1
    43   17   40 1
    44   17   41 1
    45   18   42 1
    46   18   43 1
    47   18   44 1
    48   19   45 1
    49   19   46 1
    50   20   47 1
@<TRIPOS>MOLECULE
*****
   50    53     0     0     0
SMALL
NO_CHARGES

@<TRIPOS>ATOM
      1 C1         -1.6414    1.7912    0.0000 CT        1 <0>         0.0000
      2 C2         -3.0201    1.4462    0.0000 CT        1 <0>         0.0000
      3 C3         -0.4537   -0.9552    0.0000 CT        1 <0>         0.0000
      4 C4          0.3103   -1.2661    0.0000 CT        1 <0>         0.0000
      5 C5          1.5002    0.5638    0.0000 CT        1 <0>         0.0000
      6 C6          2.2643    0.2528    0.0000 CT        1 <0>         0.0000
      7 C7         -0.0281    1.1856    0.0000 CT        1 <0>         0.0000
      8 C8         -2.0732   -0.1869    0.0000 CT        1 <0>         0.0000
      9 C9         -0.7923    1.4965    0.0000 CT        1 <0>         0.0000
     10 C10        -2.6449    0.4079    0.0000 CT        1 <0>         0.0000
     11 C11         0.8488    0.0573    0.0000 CT        1 <0>         0.0000
     12 C12         0.0846    0.3684    0.0000 CT        1 <0>         0.0000
     13 C13        -0.5666   -0.1380    0.0000 CT        1 <0>         0.0000
     14 C14         0.9616   -0.7597    0.0000 CM        1 <0>         0.0000
     15 C15        -1.3309    0.1729    0.0000 CT        1 <0>         0.0000
     16 C16         2.3772   -0.5643    0.0000 C         1 <0>         0.0000
     17 C17         1.7259   -1.0706    0.0000 CM        1 <0>         0.0000
     18 C18        -1.4438    0.9901    0.0000 CT        1 <0>         0.0000
     19 C19        -2.2558    1.1353    0.0000 CT        1 <0>         0.0000
     20 O1          3.1415   -0.8751    0.0000 O         1 <0>         0.0000
     21 O2          1.8388   -1.8880    0.0000 OH        1 <0>         0.0000
     22 O3         -2.0266    1.9279    0.0000 OH        1 <0>         0.0000
     23 H1          1.6130   -0.2535    0.0000 HC        1 <0>         0.0000
     24 H2          0.7359    0.8747    0.0000 HC        1 <0>         0.0000
     25 H3         -0.6794    0.6792    0.0000 HC        1 <0>         0.0000
     26 H4         -1.3040   -0.6517    0.0000 HC        1 <0>         0.0000
     27 H5         -1.6414    1.7912    0.0000 HC        1 <0>         0.0000
     28 H6         -1.6414    1.7912    0.0000 HC        1 <0>         0.0000
     29 H7         -1.6414    1.7912    0.0000 HC        1 <0>         0.0000
     30 H8         -3.0201    1.4462    0.0000 HC        1 <0>         0.0000
     31 H9         -3.0201    1.4462    0.0000 HC        1 <0>         0.0000
     32 H10        -3.0201    1.4462    0.0000 HC        1 <0>         0.0000
     33 H11        -0.4537   -0.9552    0.0000 HC        1 <0>         0.0000
     34 H12        -0.4537   -0.9552    0.0000 HC        1 <0>         0.0000
     35 H13         0.3103   -1.2661    0.0000 HC        1 <0>         0.0000
     36 H14         0.3103   -1.2661    0.0000 HC        1 <0>         0.0000
     37 H15         1.5002    0.5638    0.0000 HC        1 <0>         0.0000
     38 H16         1.5002    0.5638    0.0000 HC        1 <0>         0.0000
     39 H17         2.2643    0.2528    0.0000 HC        1 <0>         0.0000
     40 H18         2.2643    0.2528    0.0000 HC        1 <0>         0.0000
     41 H19        -0.0281    1.1856    0.0000 HC        1 <0>         0.0000
     42 H20        -0.0281    1.1856    0.0000 HC        1 <0>         0.0000
     43 H21        -2.0732   -0.1869    0.0000 HC        1 <0>         0.0000
     44 H22        -2.0732   -0.1869    0.0000 HC        1 <0>         0.0000
     45 H23        -0.7923    1.4965    0.0000 HC        1 <0>         0.0000
     46 H24        -0.7923    1.4965    0.0000 HC        1 <0>         0.0000
     47 H25        -2.6449    0.4079    0.0000 HC        1 <0>         0.0000
     48 H26        -2.6449    0.4079    0.0000 HC        1 <0>         0.0000
     49 H27         1.8388   -1.8880    0.0000 HO        1 <0>         0.0000
     50 H28        -2.0266    1.9279    0.0000 HO        1 <0>         0.0000
@<TRIPOS>BOND
     1    3    4 1
     2    5    6 1
     3    7    9 1
     4    8   10 1
     5    5   11 1
     6    7   12 1
     7   11   12 1
     8    3   13 1
     9   12   13 1
    10    4   14 1
    11   11   14 1
    12    8   15 1
    13   13   15 1
    14    6   16 1
    15   14   17 2
    16   16   17 1
    17    1   18 1
    18    9   18 1
    19   15   18 1
    20    2   19 1
    21   10   19 1
    22   18   19 1
    23   16   20 2
    24   17   21 1
    25   19   22 1
    26   11   23 1
    27   12   24 1
    28   13   25 1
    29   15   26 1
    30    1   27 1
    31    1   28 1
    32    1   29 1
    33    2   30 1
    34    2   31 1
    35    2   32 1
    36    3   33 1
    37    3   34 1
    38    4   35 1
    39    4   36 1
    40    5   37 1
    41    5   38 1
    42    6   39 1
    43    6   40 1
    44    7   41 1
    45    7   42 1
    46    8   43 1
    47    8   44 1
    48    9   45 1
    49    9   46 1
    50   10   47 1
    51   10   48 1
    52   21   49 1
    53   22   50 1
@<TRIPOS>MOLECULE
1541
   47    50     0     0     0
SMALL
NO_CHARGES

@<TRIPOS>ATOM
      1 O1          7.1353    1.7429    0.0000 OH        1 <0>         0.0000
      2 O2          1.6498   -1.8105    0.0000 O         1 <0>         0.0000
      3 C1          6.0985   -0.1176    0.0000 CT        1 <0>         0.0000
      4 C2          6.0985    0.7073    0.0000 CT        1 <0>         0.0000
      5 C3          5.3842   -0.5300    0.0000 CT        1 <0>         0.0000
      6 C4          4.6697   -0.1176    0.0000 CT        1 <0>         0.0000
      7 C5          5.3842    1.1197    0.0000 CT        1 <0>         0.0000
      8 C6          6.8790    0.9588    0.0000 CT        1 <0>         0.0000
      9 C7          4.6697    0.7073    0.0000 CT        1 <0>         0.0000
     10 C8          6.8790   -0.3689    0.0000 CT        1 <0>         0.0000
     11 C9          3.9191   -0.5356    0.0000 CT        1 <0>         0.0000
     12 C10         5.3974   -1.3891    0.0000 CT        1 <0>         0.0000
     13 C11         7.3604    0.2949    0.0000 CT        1 <0>         0.0000
     14 C12         6.0985    1.5322    0.0000 CT        1 <0>         0.0000
     15 C13         4.6566   -1.8245    0.0000 CT        1 <0>         0.0000
     16 C14         3.9125   -1.3948    0.0000 CM        1 <0>         0.0000
     17 C15         3.9254    0.2893    0.0000 CT        1 <0>         0.0000
     18 C16         3.1546   -0.0703    0.0000 CM        1 <0>         0.0000
     19 C17         3.1409   -1.8482    0.0000 CM        1 <0>         0.0000
     20 C18         2.3726   -0.5058    0.0000 CM        1 <0>         0.0000
     21 C19         2.3657   -1.4007    0.0000 C         1 <0>         0.0000
     22 H1          6.1683   -0.7738    0.0000 HC        1 <0>         0.0000
     23 H2          5.9581   -0.8555    0.0000 HC        1 <0>         0.0000
     24 H3          5.2413    0.2124    0.0000 HC        1 <0>         0.0000
     25 H4          7.1353    1.7429    0.0000 HO        1 <0>         0.0000
     26 H5          5.3842    1.1197    0.0000 HC        1 <0>         0.0000
     27 H6          5.3842    1.1197    0.0000 HC        1 <0>         0.0000
     28 H7          6.8790    0.9588    0.0000 H1        1 <0>         0.0000
     29 H8          4.6697    0.7073    0.0000 HC        1 <0>         0.0000
     30 H9          4.6697    0.7073    0.0000 HC        1 <0>         0.0000
     31 H10         6.8790   -0.3689    0.0000 HC        1 <0>         0.0000
     32 H11         6.8790   -0.3689    0.0000 HC        1 <0>         0.0000
     33 H12         5.3974   -1.3891    0.0000 HC        1 <0>         0.0000
     34 H13         5.3974   -1.3891    0.0000 HC        1 <0>         0.0000
     35 H14         7.3604    0.2949    0.0000 HC        1 <0>         0.0000
     36 H15         7.3604    0.2949    0.0000 HC        1 <0>         0.0000
     37 H16         6.0985    1.5322    0.0000 HC        1 <0>         0.0000
     38 H17         6.0985    1.5322    0.0000 HC        1 <0>         0.0000
     39 H18         6.0985    1.5322    0.0000 HC        1 <0>         0.0000
     40 H19         4.6566   -1.8245    0.0000 HC        1 <0>         0.0000
     41 H20         4.6566   -1.8245    0.0000 HC        1 <0>         0.0000
     42 H21         3.9254    0.2893    0.0000 HC        1 <0>         0.0000
     43 H22         3.9254    0.2893    0.0000 HC        1 <0>         0.0000
     44 H23         3.9254    0.2893    0.0000 HC        1 <0>         0.0000
     45 H24         3.1546   -0.0703    0.0000 HA        1 <0>         0.0000
     46 H25         3.1409   -1.8482    0.0000 HA        1 <0>         0.0000
     47 H26         2.3726   -0.5058    0.0000 HA        1 <0>         0.0000
@<TRIPOS>BOND
     1    1    8 1
     2    2   21 2
     3    3    4 1
     4    3    5 1
     5    3   10 1
     6    3   22 1
     7    4    7 1
     8    4    8 1
     9    4   14 1
    10    5    6 1
    11    5   12 1
    12    5   23 1
    13    6    9 1
    14    6   11 1
    15    6   24 1
    16    7    9 1
    17    8   13 1
    18   10   13 1
    19   11   16 1
    20   11   17 1
    21   11   18 1
    22   12   15 1
    23   15   16 1
    24   16   19 2
    25   18   20 2
    26   19   21 1
    27   20   21 1
    28    1   25 1
    29    7   26 1
    30    7   27 1
    31    8   28 1
    32    9   29 1
    33    9   30 1
    34   10   31 1
    35   10   32 1
    36   12   33 1
    37   12   34 1
    38   13   35 1
    39   13   36 1
    40   14   37 1
    41   14   38 1
    42   14   39 1
    43   15   40 1
    44   15   41 1
    45   17   42 1
    46   17   43 1
    47   17   44 1
    48   18   45 1
    49   19   46 1
    50   20   47 1
@<TRIPOS>MOLECULE
1561
   49    52     0     0     0
SMALL
NO_CHARGES

@<TRIPOS>ATOM
      1 O1          7.1353    1.7956    0.0000 O         1 <0>         0.0000
      2 O2          1.6498   -1.7578    0.0000 O         1 <0>         0.0000
      3 C1          4.6697   -0.0648    0.0000 CT        1 <0>         0.0000
      4 C2          5.3842   -0.4772    0.0000 CT        1 <0>         0.0000
      5 C3          3.9191   -0.4829    0.0000 CT        1 <0>         0.0000
      6 C4          6.0985   -0.0648    0.0000 CT        1 <0>         0.0000
      7 C5          6.0985    0.7601    0.0000 CT        1 <0>         0.0000
      8 C6          3.9125   -1.3421    0.0000 CT        1 <0>         0.0000
      9 C7          4.6697    0.7601    0.0000 CT        1 <0>         0.0000
     10 C8          5.3974   -1.3363    0.0000 CT        1 <0>         0.0000
     11 C9          5.3842    1.1725    0.0000 CT        1 <0>         0.0000
     12 C10         4.6566   -1.7717    0.0000 CT        1 <0>         0.0000
     13 C11         6.8790   -0.3162    0.0000 CT        1 <0>         0.0000
     14 C12         3.1546   -0.0176    0.0000 CT        1 <0>         0.0000
     15 C13         6.8790    1.0115    0.0000 C         1 <0>         0.0000
     16 C14         3.9254    0.3420    0.0000 CT        1 <0>         0.0000
     17 C15         3.1409   -1.7956    0.0000 CT        1 <0>         0.0000
     18 C16         7.3604    0.3477    0.0000 CT        1 <0>         0.0000
     19 C17         6.0985    1.5850    0.0000 CT        1 <0>         0.0000
     20 C18         2.3726   -0.4531    0.0000 CT        1 <0>         0.0000
     21 C19         2.3657   -1.3480    0.0000 C         1 <0>         0.0000
     22 H1          5.2413    0.2652    0.0000 HC        1 <0>         0.0000
     23 H2          5.9581   -0.8028    0.0000 HC        1 <0>         0.0000
     24 H3          6.1683   -0.7210    0.0000 HC        1 <0>         0.0000
     25 H4          3.9150   -2.0020    0.0000 HC        1 <0>         0.0000
     26 H5          4.6697    0.7601    0.0000 HC        1 <0>         0.0000
     27 H6          4.6697    0.7601    0.0000 HC        1 <0>         0.0000
     28 H7          5.3974   -1.3363    0.0000 HC        1 <0>         0.0000
     29 H8          5.3974   -1.3363    0.0000 HC        1 <0>         0.0000
     30 H9          5.3842    1.1725    0.0000 HC        1 <0>         0.0000
     31 H10         5.3842    1.1725    0.0000 HC        1 <0>         0.0000
     32 H11         4.6566   -1.7717    0.0000 HC        1 <0>         0.0000
     33 H12         4.6566   -1.7717    0.0000 HC        1 <0>         0.0000
     34 H13         6.8790   -0.3162    0.0000 HC        1 <0>         0.0000
     35 H14         6.8790   -0.3162    0.0000 HC        1 <0>         0.0000
     36 H15         3.1546   -0.0176    0.0000 HC        1 <0>         0.0000
     37 H16         3.1546   -0.0176    0.0000 HC        1 <0>         0.0000
     38 H17         3.9254    0.3420    0.0000 HC        1 <0>         0.0000
     39 H18         3.9254    0.3420    0.0000 HC        1 <0>         0.0000
     40 H19         3.9254    0.3420    0.0000 HC        1 <0>         0.0000
     41 H20         3.1409   -1.7956    0.0000 HC        1 <0>         0.0000
     42 H21         3.1409   -1.7956    0.0000 HC        1 <0>         0.0000
     43 H22         7.3604    0.3477    0.0000 HC        1 <0>         0.0000
     44 H23         7.3604    0.3477    0.0000 HC        1 <0>         0.0000
     45 H24         6.0985    1.5850    0.0000 HC        1 <0>         0.0000
     46 H25         6.0985    1.5850    0.0000 HC        1 <0>         0.0000
     47 H26         6.0985    1.5850    0.0000 HC        1 <0>         0.0000
     48 H27         2.3726   -0.4531    0.0000 HC        1 <0>         0.0000
     49 H28         2.3726   -0.4531    0.0000 HC        1 <0>         0.0000
@<TRIPOS>BOND
     1    1   15 2
     2    2   21 2
     3    3    4 1
     4    3    5 1
     5    3    9 1
     6    3   22 1
     7    4    6 1
     8    4   10 1
     9    4   23 1
    10    5    8 1
    11    5   14 1
    12    5   16 1
    13    6    7 1
    14    6   13 1
    15    6   24 1
    16    7   11 1
    17    7   15 1
    18    7   19 1
    19    8   12 1
    20    8   17 1
    21    8   25 1
    22    9   11 1
    23   10   12 1
    24   13   18 1
    25   14   20 1
    26   15   18 1
    27   17   21 1
    28   20   21 1
    29    9   26 1
    30    9   27 1
    31   10   28 1
    32   10   29 1
    33   11   30 1
    34   11   31 1
    35   12   32 1
    36   12   33 1
    37   13   34 1
    38   13   35 1
    39   14   36 1
    40   14   37 1
    41   16   38 1
    42   16   39 1
    43   16   40 1
    44   17   41 1
    45   17   42 1
    46   18   43 1
    47   18   44 1
    48   19   45 1
    49   19   46 1
    50   19   47 1
    51   20   48 1
    52   20   49 1
@<TRIPOS>MOLECULE
1564
   55    58     0     0     0
SMALL
NO_CHARGES

@<TRIPOS>ATOM
      1 O1          7.5474    1.4947    0.0000 OH        1 <0>         0.0000
      2 O2          1.6498   -1.7582    0.0000 O         1 <0>         0.0000
      3 C1          6.0987   -0.0653    0.0000 CT        1 <0>         0.0000
      4 C2          6.0987    0.7597    0.0000 CT        1 <0>         0.0000
      5 C3          5.3843   -0.4777    0.0000 CT        1 <0>         0.0000
      6 C4          4.6698   -0.0653    0.0000 CT        1 <0>         0.0000
      7 C5          6.8793    1.0111    0.0000 CT        1 <0>         0.0000
      8 C6          3.9192   -0.4833    0.0000 CT        1 <0>         0.0000
      9 C7          5.3843    1.1722    0.0000 CT        1 <0>         0.0000
     10 C8          4.6698    0.7597    0.0000 CT        1 <0>         0.0000
     11 C9          6.8793   -0.3166    0.0000 CT        1 <0>         0.0000
     12 C10         5.3975   -1.3368    0.0000 CT        1 <0>         0.0000
     13 C11         7.3606    0.3472    0.0000 CT        1 <0>         0.0000
     14 C12         4.6567   -1.7722    0.0000 CT        1 <0>         0.0000
     15 C13         3.9126   -1.3425    0.0000 CM        1 <0>         0.0000
     16 C14         6.0987    1.5846    0.0000 CT        1 <0>         0.0000
     17 C15         3.1546   -0.0180    0.0000 CT        1 <0>         0.0000
     18 C16         6.6257    1.7960    0.0000 CT        1 <0>         0.0000
     19 C17         3.9255    0.3416    0.0000 CT        1 <0>         0.0000
     20 C18         6.1167   -1.7410    0.0000 CT        1 <0>         0.0000
     21 C19         2.3727   -0.4535    0.0000 CT        1 <0>         0.0000
     22 C20         3.1409   -1.7960    0.0000 CM        1 <0>         0.0000
     23 C21         2.3658   -1.3485    0.0000 C         1 <0>         0.0000
     24 H1          6.1685   -0.7215    0.0000 HC        1 <0>         0.0000
     25 H2          5.9583   -0.8032    0.0000 HC        1 <0>         0.0000
     26 H3          5.2415    0.2647    0.0000 HC        1 <0>         0.0000
     27 H4          7.5474    1.4947    0.0000 HO        1 <0>         0.0000
     28 H5          5.3843    1.1722    0.0000 HC        1 <0>         0.0000
     29 H6          5.3843    1.1722    0.0000 HC        1 <0>         0.0000
     30 H7          4.6698    0.7597    0.0000 HC        1 <0>         0.0000
     31 H8          4.6698    0.7597    0.0000 HC        1 <0>         0.0000
     32 H9          6.8793   -0.3166    0.0000 HC        1 <0>         0.0000
     33 H10         6.8793   -0.3166    0.0000 HC        1 <0>         0.0000
     34 H11         5.3975   -1.3368    0.0000 HC        1 <0>         0.0000
     35 H12         7.3606    0.3472    0.0000 HC        1 <0>         0.0000
     36 H13         7.3606    0.3472    0.0000 HC        1 <0>         0.0000
     37 H14         4.6567   -1.7722    0.0000 HC        1 <0>         0.0000
     38 H15         4.6567   -1.7722    0.0000 HC        1 <0>         0.0000
     39 H16         6.0987    1.5846    0.0000 HC        1 <0>         0.0000
     40 H17         6.0987    1.5846    0.0000 HC        1 <0>         0.0000
     41 H18         6.0987    1.5846    0.0000 HC        1 <0>         0.0000
     42 H19         3.1546   -0.0180    0.0000 HC        1 <0>         0.0000
     43 H20         3.1546   -0.0180    0.0000 HC        1 <0>         0.0000
     44 H21         6.6257    1.7960    0.0000 HC        1 <0>         0.0000
     45 H22         6.6257    1.7960    0.0000 HC        1 <0>         0.0000
     46 H23         6.6257    1.7960    0.0000 HC        1 <0>         0.0000
     47 H24         3.9255    0.3416    0.0000 HC        1 <0>         0.0000
     48 H25         3.9255    0.3416    0.0000 HC        1 <0>         0.0000
     49 H26         3.9255    0.3416    0.0000 HC        1 <0>         0.0000
     50 H27         6.1167   -1.7410    0.0000 HC        1 <0>         0.0000
     51 H28         6.1167   -1.7410    0.0000 HC        1 <0>         0.0000
     52 H29         6.1167   -1.7410    0.0000 HC        1 <0>         0.0000
     53 H30         2.3727   -0.4535    0.0000 HC        1 <0>         0.0000
     54 H31         2.3727   -0.4535    0.0000 HC        1 <0>         0.0000
     55 H32         3.1409   -1.7960    0.0000 HA        1 <0>         0.0000
@<TRIPOS>BOND
     1    1    7 1
     2    2   23 2
     3    3    4 1
     4    3    5 1
     5    3   11 1
     6    3   24 1
     7    4    7 1
     8    4    9 1
     9    4   16 1
    10    5    6 1
    11    5   12 1
    12    5   25 1
    13    6    8 1
    14    6   10 1
    15    6   26 1
    16    7   13 1
    17    7   18 1
    18    8   15 1
    19    8   17 1
    20    8   19 1
    21    9   10 1
    22   11   13 1
    23   12   14 1
    24   12   20 1
    25   14   15 1
    26   15   22 2
    27   17   21 1
    28   21   23 1
    29   22   23 1
    30    1   27 1
    31    9   28 1
    32    9   29 1
    33   10   30 1
    34   10   31 1
    35   11   32 1
    36   11   33 1
    37   12   34 1
    38   13   35 1
    39   13   36 1
    40   14   37 1
    41   14   38 1
    42   16   39 1
    43   16   40 1
    44   16   41 1
    45   17   42 1
    46   17   43 1
    47   18   44 1
    48   18   45 1
    49   18   46 1
    50   19   47 1
    51   19   48 1
    52   19   49 1
    53   20   50 1
    54   20   51 1
    55   20   52 1
    56   21   53 1
    57   21   54 1
    58   22   55 1
@<TRIPOS>MOLECULE
1569
   53    56     0     0     0
SMALL
NO_CHARGES

@<TRIPOS>ATOM
      1 O1          7.9810    1.4949    0.0000 OH        1 <0>         0.0000
      2 O2          4.3886    1.1723    0.0000 OH        1 <0>         0.0000
      3 O3          2.0827   -1.7584    0.0000 O         1 <0>         0.0000
      4 O4          2.1054    0.7921    0.0000 O         1 <0>         0.0000
      5 C1          6.5320    0.7598    0.0000 CT        1 <0>         0.0000
      6 C2          6.5320   -0.0653    0.0000 CT        1 <0>         0.0000
      7 C3          5.8175   -0.4778    0.0000 CT        1 <0>         0.0000
      8 C4          5.1031   -0.0653    0.0000 CT        1 <0>         0.0000
      9 C5          7.3127    1.0112    0.0000 CT        1 <0>         0.0000
     10 C6          5.8175    1.1723    0.0000 CT        1 <0>         0.0000
     11 C7          7.3127   -0.3166    0.0000 CT        1 <0>         0.0000
     12 C8          5.1031    0.7598    0.0000 CT        1 <0>         0.0000
     13 C9          4.3523   -0.4834    0.0000 CT        1 <0>         0.0000
     14 C10         7.7942    0.3473    0.0000 CT        1 <0>         0.0000
     15 C11         5.8308   -1.3370    0.0000 CT        1 <0>         0.0000
     16 C12         6.5320    1.5848    0.0000 CT        1 <0>         0.0000
     17 C13         5.0899   -1.7724    0.0000 CT        1 <0>         0.0000
     18 C14         4.3457   -1.3427    0.0000 CM        1 <0>         0.0000
     19 C15         7.0591    1.7962    0.0000 CT        1 <0>         0.0000
     20 C16         4.3587    0.3416    0.0000 CT        1 <0>         0.0000
     21 C17         3.5877   -0.0180    0.0000 CM        1 <0>         0.0000
     22 C18         3.5739   -1.7962    0.0000 CM        1 <0>         0.0000
     23 C19         2.8056   -0.4536    0.0000 CM        1 <0>         0.0000
     24 C20         2.7987   -1.3487    0.0000 C         1 <0>         0.0000
     25 C21         2.0960   -0.0328    0.0000 C         1 <0>         0.0000
     26 H1          6.6019   -0.7216    0.0000 HC        1 <0>         0.0000
     27 H2          6.3917   -0.8033    0.0000 HC        1 <0>         0.0000
     28 H3          5.6746    0.2647    0.0000 HC        1 <0>         0.0000
     29 H4          7.9810    1.4949    0.0000 HO        1 <0>         0.0000
     30 H5          4.3886    1.1723    0.0000 HO        1 <0>         0.0000
     31 H6          5.8175    1.1723    0.0000 HC        1 <0>         0.0000
     32 H7          5.8175    1.1723    0.0000 HC        1 <0>         0.0000
     33 H8          7.3127   -0.3166    0.0000 HC        1 <0>         0.0000
     34 H9          7.3127   -0.3166    0.0000 HC        1 <0>         0.0000
     35 H10         5.1031    0.7598    0.0000 H1        1 <0>         0.0000
     36 H11         7.7942    0.3473    0.0000 HC        1 <0>         0.0000
     37 H12         7.7942    0.3473    0.0000 HC        1 <0>         0.0000
     38 H13         5.8308   -1.3370    0.0000 HC        1 <0>         0.0000
     39 H14         5.8308   -1.3370    0.0000 HC        1 <0>         0.0000
     40 H15         6.5320    1.5848    0.0000 HC        1 <0>         0.0000
     41 H16         6.5320    1.5848    0.0000 HC        1 <0>         0.0000
     42 H17         6.5320    1.5848    0.0000 HC        1 <0>         0.0000
     43 H18         5.0899   -1.7724    0.0000 HC        1 <0>         0.0000
     44 H19         5.0899   -1.7724    0.0000 HC        1 <0>         0.0000
     45 H20         7.0591    1.7962    0.0000 HC        1 <0>         0.0000
     46 H21         7.0591    1.7962    0.0000 HC        1 <0>         0.0000
     47 H22         7.0591    1.7962    0.0000 HC        1 <0>         0.0000
     48 H23         4.3587    0.3416    0.0000 HC        1 <0>         0.0000
     49 H24         4.3587    0.3416    0.0000 HC        1 <0>         0.0000
     50 H25         4.3587    0.3416    0.0000 HC        1 <0>         0.0000
     51 H26         3.5877   -0.0180    0.0000 HA        1 <0>         0.0000
     52 H27         3.5739   -1.7962    0.0000 HA        1 <0>         0.0000
     53 H28         2.0960   -0.0328    0.0000 H4        1 <0>         0.0000
@<TRIPOS>BOND
     1    1    9 1
     2    2   12 1
     3    3   24 2
     4    4   25 2
     5    5    6 1
     6    5    9 1
     7    5   10 1
     8    5   16 1
     9    6    7 1
    10    6   11 1
    11    6   26 1
    12    7    8 1
    13    7   15 1
    14    7   27 1
    15    8   12 1
    16    8   13 1
    17    8   28 1
    18    9   14 1
    19    9   19 1
    20   10   12 1
    21   11   14 1
    22   13   18 1
    23   13   20 1
    24   13   21 1
    25   15   17 1
    26   17   18 1
    27   18   22 2
    28   21   23 2
    29   22   24 1
    30   23   24 1
    31   23   25 1
    32    1   29 1
    33    2   30 1
    34   10   31 1
    35   10   32 1
    36   11   33 1
    37   11   34 1
    38   12   35 1
    39   14   36 1
    40   14   37 1
    41   15   38 1
    42   15   39 1
    43   16   40 1
    44   16   41 1
    45   16   42 1
    46   17   43 1
    47   17   44 1
    48   19   45 1
    49   19   46 1
    50   19   47 1
    51   20   48 1
    52   20   49 1
    53   20   50 1
    54   21   51 1
    55   22   52 1
    56   25   53 1
@<TRIPOS>MOLECULE
1586
   68    71     0     0     0
SMALL
NO_CHARGES

@<TRIPOS>ATOM
      1 O1          6.5590   -2.5194    0.0000 OH        1 <0>         0.0000
      2 O2          2.0919   -2.5366    0.0000 OH        1 <0>         0.0000
      3 O3          9.7049    2.9254    0.0000 OH        1 <0>         0.0000
      4 O4          9.9996    1.5273    0.0000 O         1 <0>         0.0000
      5 C1          6.5410   -0.8436    0.0000 CT        1 <0>         0.0000
      6 C2          6.5410   -0.0186    0.0000 CT        1 <0>         0.0000
      7 C3          5.8265   -1.2561    0.0000 CT        1 <0>         0.0000
      8 C4          5.1122   -0.8436    0.0000 CT        1 <0>         0.0000
      9 C5          4.3614   -1.2617    0.0000 CT        1 <0>         0.0000
     10 C6          7.3215    0.2327    0.0000 CT        1 <0>         0.0000
     11 C7          4.3547   -2.1210    0.0000 CT        1 <0>         0.0000
     12 C8          5.8265    0.3939    0.0000 CT        1 <0>         0.0000
     13 C9          5.1122   -0.0186    0.0000 CT        1 <0>         0.0000
     14 C10         5.8398   -2.1153    0.0000 CT        1 <0>         0.0000
     15 C11         7.3215   -1.0949    0.0000 CT        1 <0>         0.0000
     16 C12         7.8030   -0.4312    0.0000 CT        1 <0>         0.0000
     17 C13         5.0990   -2.5506    0.0000 CT        1 <0>         0.0000
     18 C14         3.5968   -0.7963    0.0000 CT        1 <0>         0.0000
     19 C15         6.5410    0.8063    0.0000 CT        1 <0>         0.0000
     20 C16         7.5779    1.0169    0.0000 CT        1 <0>         0.0000
     21 C17         3.5831   -2.5745    0.0000 CT        1 <0>         0.0000
     22 C18         4.3678   -0.4368    0.0000 CT        1 <0>         0.0000
     23 C19         2.8148   -1.2319    0.0000 CT        1 <0>         0.0000
     24 C20         2.8079   -2.1270    0.0000 CT        1 <0>         0.0000
     25 C21         8.3851    1.1870    0.0000 CT        1 <0>         0.0000
     26 C22         7.0270    1.6310    0.0000 CT        1 <0>         0.0000
     27 C23         8.6415    1.9712    0.0000 CT        1 <0>         0.0000
     28 C24         9.4487    2.1413    0.0000 C         1 <0>         0.0000
     29 H1          6.6109   -1.4999    0.0000 HC        1 <0>         0.0000
     30 H2          6.4007   -1.5816    0.0000 HC        1 <0>         0.0000
     31 H3          5.6836   -0.5137    0.0000 HC        1 <0>         0.0000
     32 H4          7.9736    0.3352    0.0000 HC        1 <0>         0.0000
     33 H5          4.3573   -2.7809    0.0000 HC        1 <0>         0.0000
     34 H6          6.5590   -2.5194    0.0000 HO        1 <0>         0.0000
     35 H7          2.0919   -2.5366    0.0000 HO        1 <0>         0.0000
     36 H8          9.7049    2.9254    0.0000 HO        1 <0>         0.0000
     37 H9          5.8265    0.3939    0.0000 HC        1 <0>         0.0000
     38 H10         5.8265    0.3939    0.0000 HC        1 <0>         0.0000
     39 H11         5.1122   -0.0186    0.0000 HC        1 <0>         0.0000
     40 H12         5.1122   -0.0186    0.0000 HC        1 <0>         0.0000
     41 H13         5.8398   -2.1153    0.0000 H1        1 <0>         0.0000
     42 H14         7.3215   -1.0949    0.0000 HC        1 <0>         0.0000
     43 H15         7.3215   -1.0949    0.0000 HC        1 <0>         0.0000
     44 H16         7.8030   -0.4312    0.0000 HC        1 <0>         0.0000
     45 H17         7.8030   -0.4312    0.0000 HC        1 <0>         0.0000
     46 H18         5.0990   -2.5506    0.0000 HC        1 <0>         0.0000
     47 H19         5.0990   -2.5506    0.0000 HC        1 <0>         0.0000
     48 H20         3.5968   -0.7963    0.0000 HC        1 <0>         0.0000
     49 H21         3.5968   -0.7963    0.0000 HC        1 <0>         0.0000
     50 H22         6.5410    0.8063    0.0000 HC        1 <0>         0.0000
     51 H23         6.5410    0.8063    0.0000 HC        1 <0>         0.0000
     52 H24         6.5410    0.8063    0.0000 HC        1 <0>         0.0000
     53 H25         7.5779    1.0169    0.0000 HC        1 <0>         0.0000
     54 H26         3.5831   -2.5745    0.0000 HC        1 <0>         0.0000
     55 H27         3.5831   -2.5745    0.0000 HC        1 <0>         0.0000
     56 H28         4.3678   -0.4368    0.0000 HC        1 <0>         0.0000
     57 H29         4.3678   -0.4368    0.0000 HC        1 <0>         0.0000
     58 H30         4.3678   -0.4368    0.0000 HC        1 <0>         0.0000
     59 H31         2.8148   -1.2319    0.0000 HC        1 <0>         0.0000
     60 H32         2.8148   -1.2319    0.0000 HC        1 <0>         0.0000
     61 H33         2.8079   -2.1270    0.0000 H1        1 <0>         0.0000
     62 H34         8.3851    1.1870    0.0000 HC        1 <0>         0.0000
     63 H35         8.3851    1.1870    0.0000 HC        1 <0>         0.0000
     64 H36         7.0270    1.6310    0.0000 HC        1 <0>         0.0000
     65 H37         7.0270    1.6310    0.0000 HC        1 <0>         0.0000
     66 H38         7.0270    1.6310    0.0000 HC        1 <0>         0.0000
     67 H39         8.6415    1.9712    0.0000 HC        1 <0>         0.0000
     68 H40         8.6415    1.9712    0.0000 HC        1 <0>         0.0000
@<TRIPOS>BOND
     1    1   14 1
     2    2   24 1
     3    3   28 1
     4    4   28 2
     5    5    6 1
     6    5    7 1
     7    5   15 1
     8    5   29 1
     9    6   10 1
    10    6   12 1
    11    6   19 1
    12    7    8 1
    13    7   14 1
    14    7   30 1
    15    8    9 1
    16    8   13 1
    17    8   31 1
    18    9   11 1
    19    9   18 1
    20    9   22 1
    21   10   16 1
    22   10   20 1
    23   10   32 1
    24   11   17 1
    25   11   21 1
    26   11   33 1
    27   12   13 1
    28   14   17 1
    29   15   16 1
    30   18   23 1
    31   20   25 1
    32   20   26 1
    33   21   24 1
    34   23   24 1
    35   25   27 1
    36   27   28 1
    37    1   34 1
    38    2   35 1
    39    3   36 1
    40   12   37 1
    41   12   38 1
    42   13   39 1
    43   13   40 1
    44   14   41 1
    45   15   42 1
    46   15   43 1
    47   16   44 1
    48   16   45 1
    49   17   46 1
    50   17   47 1
    51   18   48 1
    52   18   49 1
    53   19   50 1
    54   19   51 1
    55   19   52 1
    56   20   53 1
    57   21   54 1
    58   21   55 1
    59   22   56 1
    60   22   57 1
    61   22   58 1
    62   23   59 1
    63   23   60 1
    64   24   61 1
    65   25   62 1
    66   25   63 1
    67   26   64 1
    68   26   65 1
    69   26   66 1
    70   27   67 1
    71   27   68 1
@<TRIPOS>MOLECULE
NON
   32    31     0     0     0
SMALL
NO_CHARGES

@<TRIPOS>ATOM
      1 C1          2.8556   -1.3762    0.0000 C         1 <0>         0.0000
      2 C2          2.1411   -1.7887    0.0000 CT        1 <0>         0.0000
      3 C3          1.4266   -1.3762    0.0000 CT        1 <0>         0.0000
      4 C4          0.7121   -1.7887    0.0000 CT        1 <0>         0.0000
      5 C5         -0.0025   -1.3762    0.0000 CT        1 <0>         0.0000
      6 C6         -0.7170   -1.7887    0.0000 CT        1 <0>         0.0000
      7 C7         -1.4315   -1.3762    0.0000 CT        1 <0>         0.0000
      8 C8         -2.1461   -1.7887    0.0000 CT        1 <0>         0.0000
      9 C9         -2.8605   -1.3762    0.0000 CT        1 <0>         0.0000
     10 O1          2.8556   -0.5511    0.0000 O         1 <0>         0.0000
     11 O2          3.5702   -1.7887    0.0000 OS        1 <0>         0.0000
     12 C10         4.2847   -1.3762    0.0000 CT        1 <0>         0.0000
     13 H1          2.1411   -1.7887    0.0000 HC        1 <0>         0.0000
     14 H2          2.1411   -1.7887    0.0000 HC        1 <0>         0.0000
     15 H3          1.4266   -1.3762    0.0000 HC        1 <0>         0.0000
     16 H4          1.4266   -1.3762    0.0000 HC        1 <0>         0.0000
     17 H5          0.7121   -1.7887    0.0000 HC        1 <0>         0.0000
     18 H6          0.7121   -1.7887    0.0000 HC        1 <0>         0.0000
     19 H7         -0.0025   -1.3762    0.0000 HC        1 <0>         0.0000
     20 H8         -0.0025   -1.3762    0.0000 HC        1 <0>         0.0000
     21 H9         -0.7170   -1.7887    0.0000 HC        1 <0>         0.0000
     22 H10        -0.7170   -1.7887    0.0000 HC        1 <0>         0.0000
     23 H11        -1.4315   -1.3762    0.0000 HC        1 <0>         0.0000
     24 H12        -1.4315   -1.3762    0.0000 HC        1 <0>         0.0000
     25 H13        -2.1461   -1.7887    0.0000 HC        1 <0>         0.0000
     26 H14        -2.1461   -1.7887    0.0000 HC        1 <0>         0.0000
     27 H15        -2.8605   -1.3762    0.0000 HC        1 <0>         0.0000
     28 H16        -2.8605   -1.3762    0.0000 HC        1 <0>         0.0000
     29 H17        -2.8605   -1.3762    0.0000 HC        1 <0>         0.0000
     30 H18         4.2847   -1.3762    0.0000 H1        1 <0>         0.0000
     31 H19         4.2847   -1.3762    0.0000 H1        1 <0>         0.0000
     32 H20         4.2847   -1.3762    0.0000 H1        1 <0>         0.0000
@<TRIPOS>BOND
     1    1    2 1
     2    1   10 2
     3    1   11 1
     4    2    3 1
     5    3    4 1
     6    4    5 1
     7    5    6 1
     8    6    7 1
     9    7    8 1
    10    8    9 1
    11   11   12 1
    12    2   13 1
    13    2   14 1
    14    3   15 1
    15    3   16 1
    16    4   17 1
    17    4   18 1
    18    5   19 1
    19    5   20 1
    20    6   21 1
    21    6   22 1
    22    7   23 1
    23    7   24 1
    24    8   25 1
    25    8   26 1
    26    9   27 1
    27    9   28 1
    28    9   29 1
    29   12   30 1
    30   12   31 1
    31   12   32 1
@<TRIPOS>MOLECULE
*****
   63    62     0     0     0
SMALL
NO_CHARGES

@<TRIPOS>ATOM
      1 C1          7.9480    5.4138    0.0000 CT        1 <0>         0.0000
      2 C2          8.6625    5.0013    0.0000 CT        1 <0>         0.0000
      3 C3          8.6625    4.1763    0.0000 CT        1 <0>         0.0000
      4 C4          9.3770    5.4138    0.0000 CT        1 <0>         0.0000
      5 C5         10.0914    5.0013    0.0000 CT        1 <0>         0.0000
      6 C6         10.8059    5.4138    0.0000 CT        1 <0>         0.0000
      7 C7         11.5204    5.0013    0.0000 CT        1 <0>         0.0000
      8 C8         11.5204    4.1763    0.0000 CT        1 <0>         0.0000
      9 C9         12.2349    5.4138    0.0000 CT        1 <0>         0.0000
     10 C10        12.9493    5.0013    0.0000 CT        1 <0>         0.0000
     11 C11        13.6638    5.4138    0.0000 CT        1 <0>         0.0000
     12 C12        14.3783    5.0013    0.0000 CT        1 <0>         0.0000
     13 C13        14.3783    4.1763    0.0000 CT        1 <0>         0.0000
     14 C14        15.0927    5.4138    0.0000 CT        1 <0>         0.0000
     15 C15        15.8072    5.0013    0.0000 CT        1 <0>         0.0000
     16 C16        16.5217    5.4138    0.0000 CT        1 <0>         0.0000
     17 C17        17.2362    5.0013    0.0000 CT        1 <0>         0.0000
     18 C18        17.2362    4.1763    0.0000 CT        1 <0>         0.0000
     19 C19        17.9506    5.4138    0.0000 CT        1 <0>         0.0000
     20 C20        18.6651    5.0013    0.0000 CT        1 <0>         0.0000
     21 O1         19.3796    5.4138    0.0000 OH        1 <0>         0.0000
     22 H1          7.9480    5.4138    0.0000 HC        1 <0>         0.0000
     23 H2          7.9480    5.4138    0.0000 HC        1 <0>         0.0000
     24 H3          7.9480    5.4138    0.0000 HC        1 <0>         0.0000
     25 H4          8.6625    5.0013    0.0000 HC        1 <0>         0.0000
     26 H5          8.6625    4.1763    0.0000 HC        1 <0>         0.0000
     27 H6          8.6625    4.1763    0.0000 HC        1 <0>         0.0000
     28 H7          8.6625    4.1763    0.0000 HC        1 <0>         0.0000
     29 H8          9.3770    5.4138    0.0000 HC        1 <0>         0.0000
     30 H9          9.3770    5.4138    0.0000 HC        1 <0>         0.0000
     31 H10        10.0914    5.0013    0.0000 HC        1 <0>         0.0000
     32 H11        10.0914    5.0013    0.0000 HC        1 <0>         0.0000
     33 H12        10.8059    5.4138    0.0000 HC        1 <0>         0.0000
     34 H13        10.8059    5.4138    0.0000 HC        1 <0>         0.0000
     35 H14        11.5204    5.0013    0.0000 HC        1 <0>         0.0000
     36 H15        11.5204    4.1763    0.0000 HC        1 <0>         0.0000
     37 H16        11.5204    4.1763    0.0000 HC        1 <0>         0.0000
     38 H17        11.5204    4.1763    0.0000 HC        1 <0>         0.0000
     39 H18        12.2349    5.4138    0.0000 HC        1 <0>         0.0000
     40 H19        12.2349    5.4138    0.0000 HC        1 <0>         0.0000
     41 H20        12.9493    5.0013    0.0000 HC        1 <0>         0.0000
     42 H21        12.9493    5.0013    0.0000 HC        1 <0>         0.0000
     43 H22        13.6638    5.4138    0.0000 HC        1 <0>         0.0000
     44 H23        13.6638    5.4138    0.0000 HC        1 <0>         0.0000
     45 H24        14.3783    5.0013    0.0000 HC        1 <0>         0.0000
     46 H25        14.3783    4.1763    0.0000 HC        1 <0>         0.0000
     47 H26        14.3783    4.1763    0.0000 HC        1 <0>         0.0000
     48 H27        14.3783    4.1763    0.0000 HC        1 <0>         0.0000
     49 H28        15.0927    5.4138    0.0000 HC        1 <0>         0.0000
     50 H29        15.0927    5.4138    0.0000 HC        1 <0>         0.0000
     51 H30        15.8072    5.0013    0.0000 HC        1 <0>         0.0000
     52 H31        15.8072    5.0013    0.0000 HC        1 <0>         0.0000
     53 H32        16.5217    5.4138    0.0000 HC        1 <0>         0.0000
     54 H33        16.5217    5.4138    0.0000 HC        1 <0>         0.0000
     55 H34        17.2362    5.0013    0.0000 HC        1 <0>         0.0000
     56 H35        17.2362    4.1763    0.0000 HC        1 <0>         0.0000
     57 H36        17.2362    4.1763    0.0000 HC        1 <0>         0.0000
     58 H37        17.2362    4.1763    0.0000 HC        1 <0>         0.0000
     59 H38        17.9506    5.4138    0.0000 HC        1 <0>         0.0000
     60 H39        17.9506    5.4138    0.0000 HC        1 <0>         0.0000
     61 H40        18.6651    5.0013    0.0000 H1        1 <0>         0.0000
     62 H41        18.6651    5.0013    0.0000 H1        1 <0>         0.0000
     63 H42        19.3796    5.4138    0.0000 HO        1 <0>         0.0000
@<TRIPOS>BOND
     1    1    2 1
     2    2    3 1
     3    2    4 1
     4    4    5 1
     5    5    6 1
     6    6    7 1
     7    7    8 1
     8    7    9 1
     9    9   10 1
    10   10   11 1
    11   11   12 1
    12   12   13 1
    13   12   14 1
    14   14   15 1
    15   15   16 1
    16   16   17 1
    17   17   18 1
    18   17   19 1
    19   19   20 1
    20   20   21 1
    21    1   22 1
    22    1   23 1
    23    1   24 1
    24    2   25 1
    25    3   26 1
    26    3   27 1
    27    3   28 1
    28    4   29 1
    29    4   30 1
    30    5   31 1
    31    5   32 1
    32    6   33 1
    33    6   34 1
    34    7   35 1
    35    8   36 1
    36    8   37 1
    37    8   38 1
    38    9   39 1
    39    9   40 1
    40   10   41 1
    41   10   42 1
    42   11   43 1
    43   11   44 1
    44   12   45 1
    45   13   46 1
    46   13   47 1
    47   13   48 1
    48   14   49 1
    49   14   50 1
    50   15   51 1
    51   15   52 1
    52   16   53 1
    53   16   54 1
    54   17   55 1
    55   18   56 1
    56   18   57 1
    57   18   58 1
    58   19   59 1
    59   19   60 1
    60   20   61 1
    61   20   62 1
    62   21   63 1
@<TRIPOS>MOLECULE
*****
   26    25     0     0     0
SMALL
NO_CHARGES

@<TRIPOS>ATOM
      1 O1          1.0461    1.4289    0.0000 OH        1 <0>         0.0000
      2 C1          1.7605    1.8414    0.0000 CT        1 <0>         0.0000
      3 C2          2.4750    1.4289    0.0000 CT        1 <0>         0.0000
      4 O2          2.4750    0.6039    0.0000 OH        1 <0>         0.0000
      5 C3          3.1895    1.8414    0.0000 CT        1 <0>         0.0000
      6 O3          3.1895    2.6664    0.0000 OH        1 <0>         0.0000
      7 C4          3.9039    1.4289    0.0000 CT        1 <0>         0.0000
      8 O4          3.9039    0.6039    0.0000 OH        1 <0>         0.0000
      9 C5          4.6184    1.8414    0.0000 CT        1 <0>         0.0000
     10 O5          4.6184    2.6664    0.0000 OH        1 <0>         0.0000
     11 C6          5.3329    1.4289    0.0000 CT        1 <0>         0.0000
     12 O6          6.0474    1.8414    0.0000 OH        1 <0>         0.0000
     13 H1          1.0461    1.4289    0.0000 HO        1 <0>         0.0000
     14 H2          1.7605    1.8414    0.0000 H1        1 <0>         0.0000
     15 H3          1.7605    1.8414    0.0000 H1        1 <0>         0.0000
     16 H4          2.4750    1.4289    0.0000 H1        1 <0>         0.0000
     17 H5          2.4750    0.6039    0.0000 HO        1 <0>         0.0000
     18 H6          3.1895    1.8414    0.0000 H1        1 <0>         0.0000
     19 H7          3.1895    2.6664    0.0000 HO        1 <0>         0.0000
     20 H8          3.9039    1.4289    0.0000 H1        1 <0>         0.0000
     21 H9          3.9039    0.6039    0.0000 HO        1 <0>         0.0000
     22 H10         4.6184    1.8414    0.0000 H1        1 <0>         0.0000
     23 H11         4.6184    2.6664    0.0000 HO        1 <0>         0.0000
     24 H12         5.3329    1.4289    0.0000 H1        1 <0>         0.0000
     25 H13         5.3329    1.4289    0.0000 H1        1 <0>         0.0000
     26 H14         6.0474    1.8414    0.0000 HO        1 <0>         0.0000
@<TRIPOS>BOND
     1    1    2 1
     2    2    3 1
     3    3    4 1
     4    3    5 1
     5    5    6 1
     6    5    7 1
     7    7    8 1
     8    7    9 1
     9    9   10 1
    10    9   11 1
    11   11   12 1
    12    1   13 1
    13    2   14 1
    14    2   15 1
    15    3   16 1
    16    4   17 1
    17    5   18 1
    18    6   19 1
    19    7   20 1
    20    8   21 1
    21    9   22 1
    22   10   23 1
    23   11   24 1
    24   11   25 1
    25   12   26 1
@<TRIPOS>MOLECULE
*****
   27    27     0     0     0
SMALL
NO_CHARGES

@<TRIPOS>ATOM
      1 C1          2.1434    2.0625    0.0000 CT        1 <0>         0.0000
      2 O1          2.1434    1.2375    0.0000 OS        1 <0>         0.0000
      3 C2          1.4289    0.8250    0.0000 CT        1 <0>         0.0000
      4 O2          1.4289    0.0000    0.0000 OS        1 <0>         0.0000
      5 C3          0.7145   -0.4125    0.0000 CT        1 <0>         0.0000
      6 C4          0.7145   -1.2375    0.0000 CT        1 <0>         0.0000
      7 O3          1.4289   -1.6500    0.0000 OH        1 <0>         0.0000
      8 C5          0.0000    0.0000    0.0000 CT        1 <0>         0.0000
      9 O4         -0.7145   -0.4125    0.0000 OH        1 <0>         0.0000
     10 C6          0.0000    0.8250    0.0000 CT        1 <0>         0.0000
     11 O5         -0.7145    1.2375    0.0000 OH        1 <0>         0.0000
     12 C7          0.7145    1.2375    0.0000 CT        1 <0>         0.0000
     13 O6          0.7145    2.0625    0.0000 OH        1 <0>         0.0000
     14 H1          2.1434    2.0625    0.0000 H1        1 <0>         0.0000
     15 H2          2.1434    2.0625    0.0000 H1        1 <0>         0.0000
     16 H3          2.1434    2.0625    0.0000 H1        1 <0>         0.0000
     17 H4          1.4289    0.8250    0.0000 H2        1 <0>         0.0000
     18 H5          0.7145   -0.4125    0.0000 H1        1 <0>         0.0000
     19 H6          0.7145   -1.2375    0.0000 H1        1 <0>         0.0000
     20 H7          0.7145   -1.2375    0.0000 H1        1 <0>         0.0000
     21 H8          1.4289   -1.6500    0.0000 HO        1 <0>         0.0000
     22 H9          0.0000    0.0000    0.0000 H1        1 <0>         0.0000
     23 H10        -0.7145   -0.4125    0.0000 HO        1 <0>         0.0000
     24 H11         0.0000    0.8250    0.0000 H1        1 <0>         0.0000
     25 H12        -0.7145    1.2375    0.0000 HO        1 <0>         0.0000
     26 H13         0.7145    1.2375    0.0000 H1        1 <0>         0.0000
     27 H14         0.7145    2.0625    0.0000 HO        1 <0>         0.0000
@<TRIPOS>BOND
     1    1    2 1
     2    2    3 1
     3    3    4 1
     4    4    5 1
     5    5    6 1
     6    6    7 1
     7    5    8 1
     8    8    9 1
     9    8   10 1
    10   10   11 1
    11   10   12 1
    12    3   12 1
    13   12   13 1
    14    1   14 1
    15    1   15 1
    16    1   16 1
    17    3   17 1
    18    5   18 1
    19    6   19 1
    20    6   20 1
    21    7   21 1
    22    8   22 1
    23    9   23 1
    24   10   24 1
    25   11   25 1
    26   12   26 1
    27   13   27 1
@<TRIPOS>MOLECULE
HXP
   35    37     0     0     0
SMALL
NO_CHARGES

@<TRIPOS>ATOM
      1 C1         -1.5093   -0.1111    0.0000 CA        1 <0>         0.0000
      2 C2         -2.2238    0.3014    0.0000 CA        1 <0>         0.0000
      3 C3         -2.2238    1.1264    0.0000 CA        1 <0>         0.0000
      4 O1         -2.9383    1.5389    0.0000 OH        1 <0>         0.0000
      5 C4         -1.5093    1.5389    0.0000 CA        1 <0>         0.0000
      6 C5         -0.7949    1.1264    0.0000 CA        1 <0>         0.0000
      7 O2         -0.0804    1.5389    0.0000 OS        1 <0>         0.0000
      8 C6          0.6341    1.1264    0.0000 CA        1 <0>         0.0000
      9 C7          1.3486    1.5389    0.0000 CA        1 <0>         0.0000
     10 C8          2.0630    1.1264    0.0000 CA        1 <0>         0.0000
     11 O3          2.7775    1.5389    0.0000 OH        1 <0>         0.0000
     12 C9          2.0630    0.3014    0.0000 CA        1 <0>         0.0000
     13 C10         1.3486   -0.1111    0.0000 CA        1 <0>         0.0000
     14 C11         0.6341    0.3014    0.0000 CA        1 <0>         0.0000
     15 C12        -0.0804   -0.1111    0.0000 CT        1 <0>         0.0000
     16 C13        -0.7949    0.3014    0.0000 CA        1 <0>         0.0000
     17 C14        -0.0804   -0.9361    0.0000 CT        1 <0>         0.0000
     18 C15         0.6341   -1.3486    0.0000 CT        1 <0>         0.0000
     19 C16         0.6341   -2.1736    0.0000 C         1 <0>         0.0000
     20 O4          1.3486   -2.5861    0.0000 O         1 <0>         0.0000
     21 O5         -0.0804   -2.5861    0.0000 OH        1 <0>         0.0000
     22 H1         -1.5093   -0.1111    0.0000 HA        1 <0>         0.0000
     23 H2         -2.2238    0.3014    0.0000 HA        1 <0>         0.0000
     24 H3         -2.9383    1.5389    0.0000 HO        1 <0>         0.0000
     25 H4         -1.5093    1.5389    0.0000 HA        1 <0>         0.0000
     26 H5          1.3486    1.5389    0.0000 HA        1 <0>         0.0000
     27 H6          2.7775    1.5389    0.0000 HO        1 <0>         0.0000
     28 H7          2.0630    0.3014    0.0000 HA        1 <0>         0.0000
     29 H8          1.3486   -0.1111    0.0000 HA        1 <0>         0.0000
     30 H9         -0.0804   -0.1111    0.0000 HC        1 <0>         0.0000
     31 H10        -0.0804   -0.9361    0.0000 HC        1 <0>         0.0000
     32 H11        -0.0804   -0.9361    0.0000 HC        1 <0>         0.0000
     33 H12         0.6341   -1.3486    0.0000 HC        1 <0>         0.0000
     34 H13         0.6341   -1.3486    0.0000 HC        1 <0>         0.0000
     35 H14        -0.0804   -2.5861    0.0000 HO        1 <0>         0.0000
@<TRIPOS>BOND
     1    1    2 ar
     2    1   16 ar
     3    2    3 ar
     4    3    4 1
     5    3    5 ar
     6    5    6 ar
     7    6    7 1
     8    6   16 ar
     9    7    8 1
    10    8    9 ar
    11    8   14 ar
    12    9   10 ar
    13   10   11 1
    14   10   12 ar
    15   12   13 ar
    16   13   14 ar
    17   14   15 1
    18   15   16 1
    19   15   17 1
    20   17   18 1
    21   18   19 1
    22   19   20 2
    23   19   21 1
    24    1   22 1
    25    2   23 1
    26    4   24 1
    27    5   25 1
    28    9   26 1
    29   11   27 1
    30   12   28 1
    31   13   29 1
    32   15   30 1
    33   17   31 1
    34   17   32 1
    35   18   33 1
    36   18   34 1
    37   21   35 1
@<TRIPOS>MOLECULE
Genistein
   30    32     0     0     0
SMALL
NO_CHARGES

@<TRIPOS>ATOM
      1 O1          4.5012   -2.8875    0.0000 OH        1 <0>         0.0000
      2 C1          3.7867   -2.4750    0.0000 CA        1 <0>         0.0000
      3 C2          3.7867   -1.6500    0.0000 CA        1 <0>         0.0000
      4 C3          3.0723   -1.2375    0.0000 CA        1 <0>         0.0000
      5 C4          2.3578   -1.6500    0.0000 CP        1 <0>         0.0000
      6 C5          2.3578   -2.4750    0.0000 CA        1 <0>         0.0000
      7 C6          3.0723   -2.8875    0.0000 CA        1 <0>         0.0000
      8 C7          1.6433   -1.2375    0.0000 CP        1 <0>         0.0000
      9 C8          1.6433   -0.4125    0.0000 CA        1 <0>         0.0000
     10 O2          0.9289    0.0000    0.0000 OS        1 <0>         0.0000
     11 C9          0.2144   -0.4125    0.0000 CB        1 <0>         0.0000
     12 C10        -0.5001    0.0000    0.0000 CA        1 <0>         0.0000
     13 C11        -1.2146   -0.4125    0.0000 CA        1 <0>         0.0000
     14 O3         -1.9290    0.0000    0.0000 OH        1 <0>         0.0000
     15 C12        -1.2146   -1.2375    0.0000 CA        1 <0>         0.0000
     16 C13        -0.5001   -1.6500    0.0000 CA        1 <0>         0.0000
     17 O4         -0.5001   -2.4750    0.0000 OH        1 <0>         0.0000
     18 C14         0.2144   -1.2375    0.0000 CB        1 <0>         0.0000
     19 C15         0.9289   -1.6500    0.0000 C         1 <0>         0.0000
     20 O5          0.9289   -2.4750    0.0000 O         1 <0>         0.0000
     21 H1          4.5012   -2.8875    0.0000 HO        1 <0>         0.0000
     22 H2          3.7867   -1.6500    0.0000 HA        1 <0>         0.0000
     23 H3          3.0723   -1.2375    0.0000 HA        1 <0>         0.0000
     24 H4          2.3578   -2.4750    0.0000 HA        1 <0>         0.0000
     25 H5          3.0723   -2.8875    0.0000 HA        1 <0>         0.0000
     26 H6          1.6433   -0.4125    0.0000 H4        1 <0>         0.0000
     27 H7         -0.5001    0.0000    0.0000 HA        1 <0>         0.0000
     28 H8         -1.9290    0.0000    0.0000 HO        1 <0>         0.0000
     29 H9         -1.2146   -1.2375    0.0000 HA        1 <0>         0.0000
     30 H10        -0.5001   -2.4750    0.0000 HO        1 <0>         0.0000
@<TRIPOS>BOND
     1    1    2 1
     2    2    3 ar
     3    3    4 ar
     4    4    5 ar
     5    5    6 ar
     6    6    7 ar
     7    2    7 ar
     8    5    8 1
     9    8    9 2
    10    9   10 1
    11   10   11 1
    12   11   12 ar
    13   12   13 ar
    14   13   14 1
    15   13   15 ar
    16   15   16 ar
    17   16   17 1
    18   16   18 ar
    19   11   18 ar
    20   18   19 1
    21    8   19 1
    22   19   20 2
    23    1   21 1
    24    3   22 1
    25    4   23 1
    26    6   24 1
    27    7   25 1
    28    9   26 1
    29   12   27 1
    30   14   28 1
    31   15   29 1
    32   17   30 1
@<TRIPOS>MOLECULE
2HC
   20    20     0     0     0
SMALL
NO_CHARGES

@<TRIPOS>ATOM
      1 C1          0.5995    0.8655    0.0000 CM        1 <0>         0.0000
      2 C2          1.3140    1.2780    0.0000 C         1 <0>         0.0000
      3 O1          1.3140    2.1030    0.0000 OH        1 <0>         0.0000
      4 O2          2.0284    0.8655    0.0000 O         1 <0>         0.0000
      5 C3          0.5995    0.0405    0.0000 CM        1 <0>         0.0000
      6 C4         -0.1150   -0.3720    0.0000 CA        1 <0>         0.0000
      7 C5         -0.1150   -1.1970    0.0000 CA        1 <0>         0.0000
      8 C6         -0.8295   -1.6095    0.0000 CA        1 <0>         0.0000
      9 C7         -1.5439   -1.1970    0.0000 CA        1 <0>         0.0000
     10 C8         -1.5439   -0.3720    0.0000 CA        1 <0>         0.0000
     11 C9         -0.8295    0.0405    0.0000 CA        1 <0>         0.0000
     12 O3         -0.8295    0.8655    0.0000 OH        1 <0>         0.0000
     13 H1          0.5995    0.8655    0.0000 HA        1 <0>         0.0000
     14 H2          1.3140    2.1030    0.0000 HO        1 <0>         0.0000
     15 H3          0.5995    0.0405    0.0000 HA        1 <0>         0.0000
     16 H4         -0.1150   -1.1970    0.0000 HA        1 <0>         0.0000
     17 H5         -0.8295   -1.6095    0.0000 HA        1 <0>         0.0000
     18 H6         -1.5439   -1.1970    0.0000 HA        1 <0>         0.0000
     19 H7         -1.5439   -0.3720    0.0000 HA        1 <0>         0.0000
     20 H8         -0.8295    0.8655    0.0000 HO        1 <0>         0.0000
@<TRIPOS>BOND
     1    1    2 1
     2    1    5 2
     3    2    3 1
     4    2    4 2
     5    5    6 1
     6    6    7 ar
     7    6   11 ar
     8    7    8 ar
     9    8    9 ar
    10    9   10 ar
    11   10   11 ar
    12   11   12 1
    13    1   13 1
    14    3   14 1
    15    5   15 1
    16    7   16 1
    17    8   17 1
    18    9   18 1
    19   10   19 1
    20   12   20 1
@<TRIPOS>MOLECULE
*****
   34    35     0     0     0
SMALL
NO_CHARGES

@<TRIPOS>ATOM
      1 C1         -0.7145   -0.4125    0.0000 CT        1 <0>         0.0000
      2 O1          0.0000    0.0000    0.0000 OS        1 <0>         0.0000
      3 C2          0.7145   -0.4125    0.0000 CT        1 <0>         0.0000
      4 O2          1.4289    0.0000    0.0000 OS        1 <0>         0.0000
      5 C3          2.1434   -0.4125    0.0000 CT        1 <0>         0.0000
      6 C4          2.8579    0.0000    0.0000 CT        1 <0>         0.0000
      7 O3          3.5724   -0.4125    0.0000 OS        1 <0>         0.0000
      8 C5          3.5724   -1.2375    0.0000 CT        1 <0>         0.0000
      9 C6          4.3848   -1.0942    0.0000 CT        1 <0>         0.0000
     10 O4          2.8579   -1.6500    0.0000 OS        1 <0>         0.0000
     11 C7          2.1434   -1.2375    0.0000 CT        1 <0>         0.0000
     12 C8          1.4289   -1.6500    0.0000 CT        1 <0>         0.0000
     13 O5          1.4289   -2.4750    0.0000 OH        1 <0>         0.0000
     14 C9          0.7145   -1.2375    0.0000 CT        1 <0>         0.0000
     15 O6          0.0000   -1.6500    0.0000 OH        1 <0>         0.0000
     16 C10         3.8545   -2.0127    0.0000 C         1 <0>         0.0000
     17 O7          4.6670   -2.1560    0.0000 OH        1 <0>         0.0000
     18 O8          3.3242   -2.6447    0.0000 O         1 <0>         0.0000
     19 H1         -0.7145   -0.4125    0.0000 H1        1 <0>         0.0000
     20 H2         -0.7145   -0.4125    0.0000 H1        1 <0>         0.0000
     21 H3         -0.7145   -0.4125    0.0000 H1        1 <0>         0.0000
     22 H4          0.7145   -0.4125    0.0000 H2        1 <0>         0.0000
     23 H5          2.1434   -0.4125    0.0000 H1        1 <0>         0.0000
     24 H6          2.8579    0.0000    0.0000 H1        1 <0>         0.0000
     25 H7          2.8579    0.0000    0.0000 H1        1 <0>         0.0000
     26 H8          4.3848   -1.0942    0.0000 HC        1 <0>         0.0000
     27 H9          4.3848   -1.0942    0.0000 HC        1 <0>         0.0000
     28 H10         4.3848   -1.0942    0.0000 HC        1 <0>         0.0000
     29 H11         2.1434   -1.2375    0.0000 H1        1 <0>         0.0000
     30 H12         1.4289   -1.6500    0.0000 H1        1 <0>         0.0000
     31 H13         1.4289   -2.4750    0.0000 HO        1 <0>         0.0000
     32 H14         0.7145   -1.2375    0.0000 H1        1 <0>         0.0000
     33 H15         0.0000   -1.6500    0.0000 HO        1 <0>         0.0000
     34 H16         4.6670   -2.1560    0.0000 HO        1 <0>         0.0000
@<TRIPOS>BOND
     1    1    2 1
     2    2    3 1
     3    3    4 1
     4    4    5 1
     5    5    6 1
     6    6    7 1
     7    7    8 1
     8    8    9 1
     9    8   10 1
    10   10   11 1
    11    5   11 1
    12   11   12 1
    13   12   13 1
    14   12   14 1
    15    3   14 1
    16   14   15 1
    17    8   16 1
    18   16   17 1
    19   16   18 2
    20    1   19 1
    21    1   20 1
    22    1   21 1
    23    3   22 1
    24    5   23 1
    25    6   24 1
    26    6   25 1
    27    9   26 1
    28    9   27 1
    29    9   28 1
    30   11   29 1
    31   12   30 1
    32   13   31 1
    33   14   32 1
    34   15   33 1
    35   17   34 1
@<TRIPOS>MOLECULE
OAC
   25    25     0     0     0
SMALL
NO_CHARGES

@<TRIPOS>ATOM
      1 O1          1.3377    2.0397    0.0000 O         1 <0>         0.0000
      2 C1          1.3377    1.2147    0.0000 C         1 <0>         0.0000
      3 C2          0.6232    0.8022    0.0000 CT        1 <0>         0.0000
      4 C3          0.6232   -0.0228    0.0000 CT        1 <0>         0.0000
      5 C4         -0.0912    1.2147    0.0000 CT        1 <0>         0.0000
      6 C5         -0.0912   -0.4353    0.0000 CA        1 <0>         0.0000
      7 C6         -0.0912   -1.2603    0.0000 CA        1 <0>         0.0000
      8 C7         -0.8057   -1.6728    0.0000 CA        1 <0>         0.0000
      9 C8         -1.5202   -1.2603    0.0000 CA        1 <0>         0.0000
     10 C9         -1.5202   -0.4353    0.0000 CA        1 <0>         0.0000
     11 C10        -0.8057   -0.0228    0.0000 CA        1 <0>         0.0000
     12 O2         -0.8057    0.8022    0.0000 OH        1 <0>         0.0000
     13 O3          2.0522    0.8022    0.0000 OH        1 <0>         0.0000
     14 H1          1.1289    0.5102    0.0000 HC        1 <0>         0.0000
     15 H2          0.6232   -0.0228    0.0000 HC        1 <0>         0.0000
     16 H3          0.6232   -0.0228    0.0000 HC        1 <0>         0.0000
     17 H4         -0.0912    1.2147    0.0000 HC        1 <0>         0.0000
     18 H5         -0.0912    1.2147    0.0000 HC        1 <0>         0.0000
     19 H6         -0.0912    1.2147    0.0000 HC        1 <0>         0.0000
     20 H7         -0.0912   -1.2603    0.0000 HA        1 <0>         0.0000
     21 H8         -0.8057   -1.6728    0.0000 HA        1 <0>         0.0000
     22 H9         -1.5202   -1.2603    0.0000 HA        1 <0>         0.0000
     23 H10        -1.5202   -0.4353    0.0000 HA        1 <0>         0.0000
     24 H11        -0.8057    0.8022    0.0000 HO        1 <0>         0.0000
     25 H12         2.0522    0.8022    0.0000 HO        1 <0>         0.0000
@<TRIPOS>BOND
     1    1    2 2
     2    2    3 1
     3    2   13 1
     4    3    4 1
     5    3    5 1
     6    3   14 1
     7    4    6 1
     8    6    7 ar
     9    6   11 ar
    10    7    8 ar
    11    8    9 ar
    12    9   10 ar
    13   10   11 ar
    14   11   12 1
    15    4   15 1
    16    4   16 1
    17    5   17 1
    18    5   18 1
    19    5   19 1
    20    7   20 1
    21    8   21 1
    22    9   22 1
    23   10   23 1
    24   12   24 1
    25   13   25 1
@<TRIPOS>MOLECULE
NOM
   34    37     0     0     0
SMALL
NO_CHARGES

@<TRIPOS>ATOM
      1 C1          2.3788    1.0802    0.0000 CA        1 <0>         0.0000
      2 C2          1.5730    1.2573    0.0000 CA        1 <0>         0.0000
      3 C3          1.0168    0.6480    0.0000 CB        1 <0>         0.0000
      4 C4          1.2664   -0.1384    0.0000 CB        1 <0>         0.0000
      5 C5          2.0721   -0.3154    0.0000 CA        1 <0>         0.0000
      6 C6          2.6284    0.2939    0.0000 CA        1 <0>         0.0000
      7 C7          0.2110    0.8250    0.0000 C         1 <0>         0.0000
      8 C8         -0.3452    0.2158    0.0000 CA        1 <0>         0.0000
      9 C9         -0.0956   -0.5706    0.0000 CA        1 <0>         0.0000
     10 C10         0.7101   -0.7477    0.0000 C         1 <0>         0.0000
     11 O1          0.9597   -1.5340    0.0000 O         1 <0>         0.0000
     12 O2         -0.0385    1.6114    0.0000 O         1 <0>         0.0000
     13 O3          2.3217   -1.1018    0.0000 OH        1 <0>         0.0000
     14 C11        -1.1510    0.3928    0.0000 CT        1 <0>         0.0000
     15 C12        -1.7072   -0.2165    0.0000 CT        1 <0>         0.0000
     16 O4         -1.4576   -1.0028    0.0000 OS        1 <0>         0.0000
     17 C13        -0.6519   -1.1799    0.0000 CT        1 <0>         0.0000
     18 C14        -0.4023   -1.9662    0.0000 CT        1 <0>         0.0000
     19 C15        -2.4585    0.1242    0.0000 CT        1 <0>         0.0000
     20 C16        -2.3667    0.9441    0.0000 C         1 <0>         0.0000
     21 O5         -2.9760    1.5003    0.0000 O         1 <0>         0.0000
     22 O6         -1.5586    1.1101    0.0000 OS        1 <0>         0.0000
     23 H1         -0.8045    0.8628    0.0000 H1        1 <0>         0.0000
     24 H2         -2.1438   -0.6042    0.0000 H1        1 <0>         0.0000
     25 H3         -0.0815   -1.3052    0.0000 H1        1 <0>         0.0000
     26 H4          2.3788    1.0802    0.0000 HA        1 <0>         0.0000
     27 H5          1.5730    1.2573    0.0000 HA        1 <0>         0.0000
     28 H6          2.6284    0.2939    0.0000 HA        1 <0>         0.0000
     29 H7          2.3217   -1.1018    0.0000 HO        1 <0>         0.0000
     30 H8         -0.4023   -1.9662    0.0000 HC        1 <0>         0.0000
     31 H9         -0.4023   -1.9662    0.0000 HC        1 <0>         0.0000
     32 H10        -0.4023   -1.9662    0.0000 HC        1 <0>         0.0000
     33 H11        -2.4585    0.1242    0.0000 HC        1 <0>         0.0000
     34 H12        -2.4585    0.1242    0.0000 HC        1 <0>         0.0000
@<TRIPOS>BOND
     1    1    2 ar
     2    1    6 ar
     3    2    3 ar
     4    3    4 ar
     5    3    7 1
     6    4    5 ar
     7    4   10 1
     8    5    6 ar
     9    5   13 1
    10    7    8 1
    11    7   12 2
    12    8    9 2
    13    8   14 1
    14    9   10 1
    15    9   17 1
    16   10   11 2
    17   14   15 1
    18   14   22 1
    19   14   23 1
    20   15   16 1
    21   15   19 1
    22   15   24 1
    23   16   17 1
    24   17   18 1
    25   17   25 1
    26   19   20 1
    27   20   21 2
    28   20   22 1
    29    1   26 1
    30    2   27 1
    31    6   28 1
    32   13   29 1
    33   18   30 1
    34   18   31 1
    35   18   32 1
    36   19   33 1
    37   19   34 1
@<TRIPOS>MOLECULE
*****
   17    16     0     0     0
SMALL
NO_CHARGES

@<TRIPOS>ATOM
      1 C1         -0.1914    0.7145    0.0000 CT        1 <0>         0.0000
      2 C2          0.5230    1.1270    0.0000 CT        1 <0>         0.0000
      3 C3          1.2375    0.7145    0.0000 CT        1 <0>         0.0000
      4 O1          1.9520    1.1270    0.0000 OS        1 <0>         0.0000
      5 C4          2.6664    0.7145    0.0000 C         1 <0>         0.0000
      6 C5          3.3809    1.1270    0.0000 CT        1 <0>         0.0000
      7 O2          2.6664   -0.1105    0.0000 O         1 <0>         0.0000
      8 H1         -0.1914    0.7145    0.0000 HC        1 <0>         0.0000
      9 H2         -0.1914    0.7145    0.0000 HC        1 <0>         0.0000
     10 H3         -0.1914    0.7145    0.0000 HC        1 <0>         0.0000
     11 H4          0.5230    1.1270    0.0000 HC        1 <0>         0.0000
     12 H5          0.5230    1.1270    0.0000 HC        1 <0>         0.0000
     13 H6          1.2375    0.7145    0.0000 H1        1 <0>         0.0000
     14 H7          1.2375    0.7145    0.0000 H1        1 <0>         0.0000
     15 H8          3.3809    1.1270    0.0000 HC        1 <0>         0.0000
     16 H9          3.3809    1.1270    0.0000 HC        1 <0>         0.0000
     17 H10         3.3809    1.1270    0.0000 HC        1 <0>         0.0000
@<TRIPOS>BOND
     1    1    2 1
     2    2    3 1
     3    3    4 1
     4    4    5 1
     5    5    6 1
     6    5    7 2
     7    1    8 1
     8    1    9 1
     9    1   10 1
    10    2   11 1
    11    2   12 1
    12    3   13 1
    13    3   14 1
    14    6   15 1
    15    6   16 1
    16    6   17 1
@<TRIPOS>MOLECULE
2,3-Dihydroxybenzoic acid
   17    17     0     0     0
SMALL
NO_CHARGES

@<TRIPOS>ATOM
      1 O1          0.0000    2.4750    0.0000 OH        1 <0>         0.0000
      2 C1          0.7145    2.0625    0.0000 C         1 <0>         0.0000
      3 O2          1.4289    2.4750    0.0000 O         1 <0>         0.0000
      4 C2          0.7145    1.2375    0.0000 CA        1 <0>         0.0000
      5 C3          1.4289    0.8250    0.0000 CA        1 <0>         0.0000
      6 O3          2.1434    1.2375    0.0000 OH        1 <0>         0.0000
      7 C4          1.4289    0.0000    0.0000 CA        1 <0>         0.0000
      8 O4          2.1434   -0.4125    0.0000 OH        1 <0>         0.0000
      9 C5          0.7145   -0.4125    0.0000 CA        1 <0>         0.0000
     10 C6          0.0000    0.0000    0.0000 CA        1 <0>         0.0000
     11 C7          0.0000    0.8250    0.0000 CA        1 <0>         0.0000
     12 H1          0.0000    2.4750    0.0000 HO        1 <0>         0.0000
     13 H2          2.1434    1.2375    0.0000 HO        1 <0>         0.0000
     14 H3          2.1434   -0.4125    0.0000 HO        1 <0>         0.0000
     15 H4          0.7145   -0.4125    0.0000 HA        1 <0>         0.0000
     16 H5          0.0000    0.0000    0.0000 HA        1 <0>         0.0000
     17 H6          0.0000    0.8250    0.0000 HA        1 <0>         0.0000
@<TRIPOS>BOND
     1    1    2 1
     2    2    3 2
     3    2    4 1
     4    4    5 ar
     5    5    6 1
     6    5    7 ar
     7    7    8 1
     8    7    9 ar
     9    9   10 ar
    10   10   11 ar
    11    4   11 ar
    12    1   12 1
    13    6   13 1
    14    8   14 1
    15    9   15 1
    16   10   16 1
    17   11   17 1
@<TRIPOS>MOLECULE
*****
   10     9     0     0     0
SMALL
NO_CHARGES

@<TRIPOS>ATOM
      1 O1          2.0625    0.7145    0.0000 O2        1 <0>         0.0000
      2 C1          1.2375    0.7145    0.0000 C         1 <0>         0.0000
      3 O2          0.8250    1.4289    0.0000 O2        1 <0>         0.0000
      4 C2          0.8250    0.0000    0.0000 CM        1 <0>         0.0000
      5 C3          0.0000    0.0000    0.0000 CM        1 <0>         0.0000
      6 C4         -0.4125   -0.7145    0.0000 C         1 <0>         0.0000
      7 O3          0.0000   -1.4289    0.0000 O2        1 <0>         0.0000
      8 O4         -1.2375   -0.7145    0.0000 O2        1 <0>         0.0000
      9 H1          0.8250    0.0000    0.0000 HA        1 <0>         0.0000
     10 H2          0.0000    0.0000    0.0000 HA        1 <0>         0.0000
@<TRIPOS>BOND
     1    1    2 1
     2    2    3 2
     3    2    4 1
     4    4    5 2
     5    5    6 1
     6    6    7 1
     7    6    8 2
     8    4    9 1
     9    5   10 1
@<TRIPOS>MOLECULE
*****
   30    30     0     0     0
SMALL
NO_CHARGES

@<TRIPOS>ATOM
      1 O1          2.1434    2.0625    0.0000 OH        1 <0>         0.0000
      2 C1          2.1434    1.2375    0.0000 C         1 <0>         0.0000
      3 O2          2.8579    0.8250    0.0000 O         1 <0>         0.0000
      4 C2          1.4289    0.8250    0.0000 CA        1 <0>         0.0000
      5 C3          1.4289    0.0000    0.0000 CA        1 <0>         0.0000
      6 C4          2.1434   -0.4125    0.0000 C         1 <0>         0.0000
      7 O3          2.1434   -1.2375    0.0000 OH        1 <0>         0.0000
      8 O4          2.8579    0.0000    0.0000 O         1 <0>         0.0000
      9 C5          0.7145   -0.4125    0.0000 CA        1 <0>         0.0000
     10 C6          0.7145   -1.2375    0.0000 C         1 <0>         0.0000
     11 O5          0.0000   -1.6500    0.0000 OH        1 <0>         0.0000
     12 O6          1.4289   -1.6500    0.0000 O         1 <0>         0.0000
     13 C7          0.0000    0.0000    0.0000 CA        1 <0>         0.0000
     14 C8         -0.7145   -0.4125    0.0000 C         1 <0>         0.0000
     15 O7         -0.7145   -1.2375    0.0000 OH        1 <0>         0.0000
     16 O8         -1.4289    0.0000    0.0000 O         1 <0>         0.0000
     17 C9          0.0000    0.8250    0.0000 CA        1 <0>         0.0000
     18 C10        -0.7145    1.2375    0.0000 C         1 <0>         0.0000
     19 O9         -0.7145    2.0625    0.0000 OH        1 <0>         0.0000
     20 O10        -1.4289    0.8250    0.0000 O         1 <0>         0.0000
     21 C11         0.7145    1.2375    0.0000 CA        1 <0>         0.0000
     22 C12         0.7145    2.0625    0.0000 C         1 <0>         0.0000
     23 O11         1.4289    2.4750    0.0000 OH        1 <0>         0.0000
     24 O12         0.0000    2.4750    0.0000 O         1 <0>         0.0000
     25 H1          2.1434    2.0625    0.0000 HO        1 <0>         0.0000
     26 H2          2.1434   -1.2375    0.0000 HO        1 <0>         0.0000
     27 H3          0.0000   -1.6500    0.0000 HO        1 <0>         0.0000
     28 H4         -0.7145   -1.2375    0.0000 HO        1 <0>         0.0000
     29 H5         -0.7145    2.0625    0.0000 HO        1 <0>         0.0000
     30 H6          1.4289    2.4750    0.0000 HO        1 <0>         0.0000
@<TRIPOS>BOND
     1    1    2 1
     2    2    3 2
     3    2    4 1
     4    4    5 ar
     5    5    6 1
     6    6    7 1
     7    6    8 2
     8    5    9 ar
     9    9   10 1
    10   10   11 1
    11   10   12 2
    12    9   13 ar
    13   13   14 1
    14   14   15 1
    15   14   16 2
    16   13   17 ar
    17   17   18 1
    18   18   19 1
    19   18   20 2
    20   17   21 ar
    21    4   21 ar
    22   21   22 1
    23   22   23 1
    24   22   24 2
    25    1   25 1
    26    7   26 1
    27   11   27 1
    28   15   28 1
    29   19   29 1
    30   23   30 1
@<TRIPOS>MOLECULE
*****
   45    46     0     0     0
SMALL
NO_CHARGES

@<TRIPOS>ATOM
      1 O1         -2.2393   -2.2098    0.0000 OS        1 <0>         0.0000
      2 C1         -2.9538   -2.6223    0.0000 CT        1 <0>         0.0000
      3 C2         -2.9538   -3.4473    0.0000 CT        1 <0>         0.0000
      4 C3         -2.2393   -3.8598    0.0000 CT        1 <0>         0.0000
      5 C4         -1.5248   -3.4473    0.0000 CT        1 <0>         0.0000
      6 C5         -1.5248   -2.6223    0.0000 CT        1 <0>         0.0000
      7 O2         -0.8103   -2.2098    0.0000 OS        1 <0>         0.0000
      8 O3         -0.8103   -3.8598    0.0000 OH        1 <0>         0.0000
      9 O4         -2.2393   -4.6848    0.0000 OH        1 <0>         0.0000
     10 O5         -3.6682   -3.8598    0.0000 OH        1 <0>         0.0000
     11 C6         -3.6682   -2.2098    0.0000 CT        1 <0>         0.0000
     12 O6         -4.3827   -2.6223    0.0000 OH        1 <0>         0.0000
     13 O7          0.6186   -0.5598    0.0000 OS        1 <0>         0.0000
     14 C7         -0.0959   -0.9723    0.0000 CT        1 <0>         0.0000
     15 C8         -0.0959   -1.7973    0.0000 CT        1 <0>         0.0000
     16 C9          0.6186   -2.2098    0.0000 CT        1 <0>         0.0000
     17 C10         1.3331   -1.7973    0.0000 CT        1 <0>         0.0000
     18 C11         1.3331   -0.9723    0.0000 CT        1 <0>         0.0000
     19 O8          2.0475   -0.5598    0.0000 OH        1 <0>         0.0000
     20 O9          2.0475   -2.2098    0.0000 OH        1 <0>         0.0000
     21 O10         0.6186   -3.0348    0.0000 OH        1 <0>         0.0000
     22 C12        -0.8103   -0.5598    0.0000 CT        1 <0>         0.0000
     23 O11        -1.5248   -0.9723    0.0000 OH        1 <0>         0.0000
     24 H1         -2.9538   -2.6223    0.0000 H1        1 <0>         0.0000
     25 H2         -2.9538   -3.4473    0.0000 H1        1 <0>         0.0000
     26 H3         -2.2393   -3.8598    0.0000 H1        1 <0>         0.0000
     27 H4         -1.5248   -3.4473    0.0000 H1        1 <0>         0.0000
     28 H5         -1.5248   -2.6223    0.0000 H2        1 <0>         0.0000
     29 H6         -0.8103   -3.8598    0.0000 HO        1 <0>         0.0000
     30 H7         -2.2393   -4.6848    0.0000 HO        1 <0>         0.0000
     31 H8         -3.6682   -3.8598    0.0000 HO        1 <0>         0.0000
     32 H9         -3.6682   -2.2098    0.0000 H1        1 <0>         0.0000
     33 H10        -3.6682   -2.2098    0.0000 H1        1 <0>         0.0000
     34 H11        -4.3827   -2.6223    0.0000 HO        1 <0>         0.0000
     35 H12        -0.0959   -0.9723    0.0000 H1        1 <0>         0.0000
     36 H13        -0.0959   -1.7973    0.0000 H1        1 <0>         0.0000
     37 H14         0.6186   -2.2098    0.0000 H1        1 <0>         0.0000
     38 H15         1.3331   -1.7973    0.0000 H1        1 <0>         0.0000
     39 H16         1.3331   -0.9723    0.0000 H2        1 <0>         0.0000
     40 H17         2.0475   -0.5598    0.0000 HO        1 <0>         0.0000
     41 H18         2.0475   -2.2098    0.0000 HO        1 <0>         0.0000
     42 H19         0.6186   -3.0348    0.0000 HO        1 <0>         0.0000
     43 H20        -0.8103   -0.5598    0.0000 H1        1 <0>         0.0000
     44 H21        -0.8103   -0.5598    0.0000 H1        1 <0>         0.0000
     45 H22        -1.5248   -0.9723    0.0000 HO        1 <0>         0.0000
@<TRIPOS>BOND
     1    1    2 1
     2    2    3 1
     3    3    4 1
     4    4    5 1
     5    5    6 1
     6    1    6 1
     7    6    7 1
     8    5    8 1
     9    4    9 1
    10    3   10 1
    11    2   11 1
    12   11   12 1
    13    7   15 1
    14   13   14 1
    15   14   15 1
    16   15   16 1
    17   16   17 1
    18   17   18 1
    19   13   18 1
    20   18   19 1
    21   17   20 1
    22   16   21 1
    23   14   22 1
    24   22   23 1
    25    2   24 1
    26    3   25 1
    27    4   26 1
    28    5   27 1
    29    6   28 1
    30    8   29 1
    31    9   30 1
    32   10   31 1
    33   11   32 1
    34   11   33 1
    35   12   34 1
    36   14   35 1
    37   15   36 1
    38   16   37 1
    39   17   38 1
    40   18   39 1
    41   19   40 1
    42   20   41 1
    43   21   42 1
    44   22   43 1
    45   22   44 1
    46   23   45 1
@<TRIPOS>MOLECULE
*****
   16    16     0     0     0
SMALL
NO_CHARGES

@<TRIPOS>ATOM
      1 C1          0.7145   -1.2375    0.0000 CT        1 <0>         0.0000
      2 C2          0.7145   -0.4125    0.0000 CA        1 <0>         0.0000
      3 C3          0.0000    0.0000    0.0000 CA        1 <0>         0.0000
      4 C4          0.0000    0.8250    0.0000 CA        1 <0>         0.0000
      5 C5          0.7145    1.2375    0.0000 CA        1 <0>         0.0000
      6 O1          0.7145    2.0625    0.0000 OH        1 <0>         0.0000
      7 C6          1.4289    0.8250    0.0000 CA        1 <0>         0.0000
      8 C7          1.4289    0.0000    0.0000 CA        1 <0>         0.0000
      9 H1          0.7145   -1.2375    0.0000 HC        1 <0>         0.0000
     10 H2          0.7145   -1.2375    0.0000 HC        1 <0>         0.0000
     11 H3          0.7145   -1.2375    0.0000 HC        1 <0>         0.0000
     12 H4          0.0000    0.0000    0.0000 HA        1 <0>         0.0000
     13 H5          0.0000    0.8250    0.0000 HA        1 <0>         0.0000
     14 H6          0.7145    2.0625    0.0000 HO        1 <0>         0.0000
     15 H7          1.4289    0.8250    0.0000 HA        1 <0>         0.0000
     16 H8          1.4289    0.0000    0.0000 HA        1 <0>         0.0000
@<TRIPOS>BOND
     1    1    2 1
     2    2    3 ar
     3    3    4 ar
     4    4    5 ar
     5    5    6 1
     6    5    7 ar
     7    7    8 ar
     8    2    8 ar
     9    1    9 1
    10    1   10 1
    11    1   11 1
    12    3   12 1
    13    4   13 1
    14    6   14 1
    15    7   15 1
    16    8   16 1
@<TRIPOS>MOLECULE
*****
   16    15     0     0     0
SMALL
NO_CHARGES

@<TRIPOS>ATOM
      1 O1          1.9520    1.9520    0.0000 OH        1 <0>         0.0000
      2 C1          1.9520    1.1270    0.0000 CT        1 <0>         0.0000
      3 C2          1.2375    0.7145    0.0000 CT        1 <0>         0.0000
      4 O2          1.2375   -0.1105    0.0000 OH        1 <0>         0.0000
      5 C3          0.5230    1.1270    0.0000 C         1 <0>         0.0000
      6 O3         -0.1914    0.7145    0.0000 OH        1 <0>         0.0000
      7 O4          0.5230    1.9520    0.0000 O         1 <0>         0.0000
      8 C4          2.6664    0.7145    0.0000 C         1 <0>         0.0000
      9 O5          3.3809    1.1270    0.0000 OH        1 <0>         0.0000
     10 O6          2.6664   -0.1105    0.0000 O         1 <0>         0.0000
     11 H1          1.9520    1.9520    0.0000 HO        1 <0>         0.0000
     12 H2          1.9520    1.1270    0.0000 H1        1 <0>         0.0000
     13 H3          1.2375    0.7145    0.0000 H1        1 <0>         0.0000
     14 H4          1.2375   -0.1105    0.0000 HO        1 <0>         0.0000
     15 H5         -0.1914    0.7145    0.0000 HO        1 <0>         0.0000
     16 H6          3.3809    1.1270    0.0000 HO        1 <0>         0.0000
@<TRIPOS>BOND
     1    1    2 1
     2    2    3 1
     3    3    4 1
     4    3    5 1
     5    5    6 1
     6    5    7 2
     7    2    8 1
     8    8    9 1
     9    8   10 2
    10    1   11 1
    11    2   12 1
    12    3   13 1
    13    4   14 1
    14    6   15 1
    15    9   16 1
@<TRIPOS>MOLECULE
*****
   66    68     0     0     0
SMALL
NO_CHARGES

@<TRIPOS>ATOM
      1 O1          2.8579   -2.4750    0.0000 OH        1 <0>         0.0000
      2 C1          3.5724   -2.8875    0.0000 CT        1 <0>         0.0000
      3 C2          3.5724   -3.7125    0.0000 CT        1 <0>         0.0000
      4 O2          4.2868   -4.1250    0.0000 OS        1 <0>         0.0000
      5 C3          4.2868   -4.9500    0.0000 CT        1 <0>         0.0000
      6 O3          5.0013   -5.3625    0.0000 OS        1 <0>         0.0000
      7 C4          5.7158   -4.9500    0.0000 CT        1 <0>         0.0000
      8 C5          6.4302   -5.3625    0.0000 CT        1 <0>         0.0000
      9 C6          6.4302   -6.1875    0.0000 CT        1 <0>         0.0000
     10 O4          7.1447   -6.6000    0.0000 OH        1 <0>         0.0000
     11 O5          7.1447   -4.9500    0.0000 OS        1 <0>         0.0000
     12 C7          7.1447   -4.1250    0.0000 CT        1 <0>         0.0000
     13 O6          7.8592   -3.7125    0.0000 OS        1 <0>         0.0000
     14 C8          8.5737   -4.1250    0.0000 CT        1 <0>         0.0000
     15 C9          9.2881   -3.7125    0.0000 CT        1 <0>         0.0000
     16 C10         9.2881   -2.8875    0.0000 CT        1 <0>         0.0000
     17 O7         10.0026   -2.4750    0.0000 OH        1 <0>         0.0000
     18 O8         10.0026   -4.1250    0.0000 OS        1 <0>         0.0000
     19 C11        10.0026   -4.9500    0.0000 CT        1 <0>         0.0000
     20 O9         10.7171   -5.3625    0.0000 OH        1 <0>         0.0000
     21 C12         9.2881   -5.3625    0.0000 CT        1 <0>         0.0000
     22 O10         9.2881   -6.1875    0.0000 OH        1 <0>         0.0000
     23 C13         8.5737   -4.9500    0.0000 CT        1 <0>         0.0000
     24 O11         7.8592   -5.3625    0.0000 OH        1 <0>         0.0000
     25 C14         6.4302   -3.7125    0.0000 CT        1 <0>         0.0000
     26 O12         6.4302   -2.8875    0.0000 OH        1 <0>         0.0000
     27 C15         5.7158   -4.1250    0.0000 CT        1 <0>         0.0000
     28 O13         5.0013   -3.7125    0.0000 OH        1 <0>         0.0000
     29 C16         3.5724   -5.3625    0.0000 CT        1 <0>         0.0000
     30 O14         3.5724   -6.1875    0.0000 OH        1 <0>         0.0000
     31 C17         2.8579   -4.9500    0.0000 CT        1 <0>         0.0000
     32 O15         2.1434   -5.3625    0.0000 OH        1 <0>         0.0000
     33 C18         2.8579   -4.1250    0.0000 CT        1 <0>         0.0000
     34 O16         2.1434   -3.7125    0.0000 OH        1 <0>         0.0000
     35 H1          2.8579   -2.4750    0.0000 HO        1 <0>         0.0000
     36 H2          3.5724   -2.8875    0.0000 H1        1 <0>         0.0000
     37 H3          3.5724   -2.8875    0.0000 H1        1 <0>         0.0000
     38 H4          3.5724   -3.7125    0.0000 H1        1 <0>         0.0000
     39 H5          4.2868   -4.9500    0.0000 H2        1 <0>         0.0000
     40 H6          5.7158   -4.9500    0.0000 H1        1 <0>         0.0000
     41 H7          6.4302   -5.3625    0.0000 H1        1 <0>         0.0000
     42 H8          6.4302   -6.1875    0.0000 H1        1 <0>         0.0000
     43 H9          6.4302   -6.1875    0.0000 H1        1 <0>         0.0000
     44 H10         7.1447   -6.6000    0.0000 HO        1 <0>         0.0000
     45 H11         7.1447   -4.1250    0.0000 H2        1 <0>         0.0000
     46 H12         8.5737   -4.1250    0.0000 H1        1 <0>         0.0000
     47 H13         9.2881   -3.7125    0.0000 H1        1 <0>         0.0000
     48 H14         9.2881   -2.8875    0.0000 H1        1 <0>         0.0000
     49 H15         9.2881   -2.8875    0.0000 H1        1 <0>         0.0000
     50 H16        10.0026   -2.4750    0.0000 HO        1 <0>         0.0000
     51 H17        10.0026   -4.9500    0.0000 H2        1 <0>         0.0000
     52 H18        10.7171   -5.3625    0.0000 HO        1 <0>         0.0000
     53 H19         9.2881   -5.3625    0.0000 H1        1 <0>         0.0000
     54 H20         9.2881   -6.1875    0.0000 HO        1 <0>         0.0000
     55 H21         8.5737   -4.9500    0.0000 H1        1 <0>         0.0000
     56 H22         7.8592   -5.3625    0.0000 HO        1 <0>         0.0000
     57 H23         6.4302   -3.7125    0.0000 H1        1 <0>         0.0000
     58 H24         6.4302   -2.8875    0.0000 HO        1 <0>         0.0000
     59 H25         5.7158   -4.1250    0.0000 H1        1 <0>         0.0000
     60 H26         5.0013   -3.7125    0.0000 HO        1 <0>         0.0000
     61 H27         3.5724   -5.3625    0.0000 H1        1 <0>         0.0000
     62 H28         3.5724   -6.1875    0.0000 HO        1 <0>         0.0000
     63 H29         2.8579   -4.9500    0.0000 H1        1 <0>         0.0000
     64 H30         2.1434   -5.3625    0.0000 HO        1 <0>         0.0000
     65 H31         2.8579   -4.1250    0.0000 H1        1 <0>         0.0000
     66 H32         2.1434   -3.7125    0.0000 HO        1 <0>         0.0000
@<TRIPOS>BOND
     1    1    2 1
     2    2    3 1
     3    3    4 1
     4    4    5 1
     5    5    6 1
     6    6    7 1
     7    7    8 1
     8    8    9 1
     9    9   10 1
    10    8   11 1
    11   11   12 1
    12   12   13 1
    13   13   14 1
    14   14   15 1
    15   15   16 1
    16   16   17 1
    17   15   18 1
    18   18   19 1
    19   19   20 1
    20   19   21 1
    21   21   22 1
    22   21   23 1
    23   14   23 1
    24   23   24 1
    25   12   25 1
    26   25   26 1
    27   25   27 1
    28    7   27 1
    29   27   28 1
    30    5   29 1
    31   29   30 1
    32   29   31 1
    33   31   32 1
    34   31   33 1
    35    3   33 1
    36   33   34 1
    37    1   35 1
    38    2   36 1
    39    2   37 1
    40    3   38 1
    41    5   39 1
    42    7   40 1
    43    8   41 1
    44    9   42 1
    45    9   43 1
    46   10   44 1
    47   12   45 1
    48   14   46 1
    49   15   47 1
    50   16   48 1
    51   16   49 1
    52   17   50 1
    53   19   51 1
    54   20   52 1
    55   21   53 1
    56   22   54 1
    57   23   55 1
    58   24   56 1
    59   25   57 1
    60   26   58 1
    61   27   59 1
    62   28   60 1
    63   29   61 1
    64   30   62 1
    65   31   63 1
    66   32   64 1
    67   33   65 1
    68   34   66 1
@<TRIPOS>MOLECULE
*****
   73    77     0     0     0
SMALL
NO_CHARGES

@<TRIPOS>ATOM
      1 C1          3.5724   -6.1875    0.0000 CT        1 <0>         0.0000
      2 C2          3.5724   -5.3625    0.0000 CT        1 <0>         0.0000
      3 O1          2.8579   -4.9500    0.0000 OS        1 <0>         0.0000
      4 C3          2.8579   -4.1250    0.0000 CT        1 <0>         0.0000
      5 O2          2.1434   -3.7125    0.0000 OS        1 <0>         0.0000
      6 C4          1.4289   -4.1250    0.0000 CT        1 <0>         0.0000
      7 C5          0.7145   -3.7125    0.0000 CT        1 <0>         0.0000
      8 O3          0.7145   -2.8875    0.0000 OS        1 <0>         0.0000
      9 C6          0.0000   -2.4750    0.0000 CT        1 <0>         0.0000
     10 O4          0.0000   -1.6500    0.0000 OS        1 <0>         0.0000
     11 C7          0.7145   -1.2375    0.0000 CA        1 <0>         0.0000
     12 C8          0.7145   -0.4125    0.0000 CP        1 <0>         0.0000
     13 O5          1.4289    0.0000    0.0000 OS        1 <0>         0.0000
     14 C9          2.1434   -0.4125    0.0000 CB        1 <0>         0.0000
     15 C10         2.8579    0.0000    0.0000 CA        1 <0>         0.0000
     16 C11         3.5724   -0.4125    0.0000 CA        1 <0>         0.0000
     17 O6          4.2868    0.0000    0.0000 OH        1 <0>         0.0000
     18 C12         3.5724   -1.2375    0.0000 CA        1 <0>         0.0000
     19 C13         2.8579   -1.6500    0.0000 CA        1 <0>         0.0000
     20 O7          2.8579   -2.4750    0.0000 OH        1 <0>         0.0000
     21 C14         2.1434   -1.2375    0.0000 CB        1 <0>         0.0000
     22 C15         1.4289   -1.6500    0.0000 C         1 <0>         0.0000
     23 O8          1.4289   -2.4750    0.0000 O         1 <0>         0.0000
     24 C16         0.0000    0.0000    0.0000 CP        1 <0>         0.0000
     25 C17        -0.7145   -0.4125    0.0000 CA        1 <0>         0.0000
     26 C18        -1.4289    0.0000    0.0000 CA        1 <0>         0.0000
     27 C19        -1.4289    0.8250    0.0000 CA        1 <0>         0.0000
     28 O9         -2.1434    1.2375    0.0000 OH        1 <0>         0.0000
     29 C20        -0.7145    1.2375    0.0000 CA        1 <0>         0.0000
     30 O10        -0.7145    2.0625    0.0000 OH        1 <0>         0.0000
     31 C21         0.0000    0.8250    0.0000 CA        1 <0>         0.0000
     32 C22        -0.7145   -2.8875    0.0000 CT        1 <0>         0.0000
     33 O11        -1.4289   -2.4750    0.0000 OH        1 <0>         0.0000
     34 C23        -0.7145   -3.7125    0.0000 CT        1 <0>         0.0000
     35 O12        -1.4289   -4.1250    0.0000 OH        1 <0>         0.0000
     36 C24         0.0000   -4.1250    0.0000 CT        1 <0>         0.0000
     37 O13         0.0000   -4.9500    0.0000 OH        1 <0>         0.0000
     38 C25         3.5724   -3.7125    0.0000 CT        1 <0>         0.0000
     39 O14         3.5724   -2.8875    0.0000 OH        1 <0>         0.0000
     40 C26         4.2868   -4.1250    0.0000 CT        1 <0>         0.0000
     41 O15         5.0013   -3.7125    0.0000 OH        1 <0>         0.0000
     42 C27         4.2868   -4.9500    0.0000 CT        1 <0>         0.0000
     43 O16         5.0013   -5.3625    0.0000 OH        1 <0>         0.0000
     44 H1          3.5724   -6.1875    0.0000 HC        1 <0>         0.0000
     45 H2          3.5724   -6.1875    0.0000 HC        1 <0>         0.0000
     46 H3          3.5724   -6.1875    0.0000 HC        1 <0>         0.0000
     47 H4          3.5724   -5.3625    0.0000 H1        1 <0>         0.0000
     48 H5          2.8579   -4.1250    0.0000 H2        1 <0>         0.0000
     49 H6          1.4289   -4.1250    0.0000 H1        1 <0>         0.0000
     50 H7          1.4289   -4.1250    0.0000 H1        1 <0>         0.0000
     51 H8          0.7145   -3.7125    0.0000 H1        1 <0>         0.0000
     52 H9          0.0000   -2.4750    0.0000 H2        1 <0>         0.0000
     53 H10         2.8579    0.0000    0.0000 HA        1 <0>         0.0000
     54 H11         4.2868    0.0000    0.0000 HO        1 <0>         0.0000
     55 H12         3.5724   -1.2375    0.0000 HA        1 <0>         0.0000
     56 H13         2.8579   -2.4750    0.0000 HO        1 <0>         0.0000
     57 H14        -0.7145   -0.4125    0.0000 HA        1 <0>         0.0000
     58 H15        -1.4289    0.0000    0.0000 HA        1 <0>         0.0000
     59 H16        -2.1434    1.2375    0.0000 HO        1 <0>         0.0000
     60 H17        -0.7145    2.0625    0.0000 HO        1 <0>         0.0000
     61 H18         0.0000    0.8250    0.0000 HA        1 <0>         0.0000
     62 H19        -0.7145   -2.8875    0.0000 H1        1 <0>         0.0000
     63 H20        -1.4289   -2.4750    0.0000 HO        1 <0>         0.0000
     64 H21        -0.7145   -3.7125    0.0000 H1        1 <0>         0.0000
     65 H22        -1.4289   -4.1250    0.0000 HO        1 <0>         0.0000
     66 H23         0.0000   -4.1250    0.0000 H1        1 <0>         0.0000
     67 H24         0.0000   -4.9500    0.0000 HO        1 <0>         0.0000
     68 H25         3.5724   -3.7125    0.0000 H1        1 <0>         0.0000
     69 H26         3.5724   -2.8875    0.0000 HO        1 <0>         0.0000
     70 H27         4.2868   -4.1250    0.0000 H1        1 <0>         0.0000
     71 H28         5.0013   -3.7125    0.0000 HO        1 <0>         0.0000
     72 H29         4.2868   -4.9500    0.0000 H1        1 <0>         0.0000
     73 H30         5.0013   -5.3625    0.0000 HO        1 <0>         0.0000
@<TRIPOS>BOND
     1    1    2 1
     2    2    3 1
     3    3    4 1
     4    4    5 1
     5    5    6 1
     6    6    7 1
     7    7    8 1
     8    8    9 1
     9    9   10 1
    10   10   11 1
    11   11   12 2
    12   12   13 1
    13   13   14 1
    14   14   15 ar
    15   15   16 ar
    16   16   17 1
    17   16   18 ar
    18   18   19 ar
    19   19   20 1
    20   19   21 ar
    21   14   21 ar
    22   21   22 1
    23   11   22 1
    24   22   23 2
    25   12   24 1
    26   24   25 ar
    27   25   26 ar
    28   26   27 ar
    29   27   28 1
    30   27   29 ar
    31   29   30 1
    32   29   31 ar
    33   24   31 ar
    34    9   32 1
    35   32   33 1
    36   32   34 1
    37   34   35 1
    38   34   36 1
    39    7   36 1
    40   36   37 1
    41    4   38 1
    42   38   39 1
    43   38   40 1
    44   40   41 1
    45   40   42 1
    46    2   42 1
    47   42   43 1
    48    1   44 1
    49    1   45 1
    50    1   46 1
    51    2   47 1
    52    4   48 1
    53    6   49 1
    54    6   50 1
    55    7   51 1
    56    9   52 1
    57   15   53 1
    58   17   54 1
    59   18   55 1
    60   20   56 1
    61   25   57 1
    62   26   58 1
    63   28   59 1
    64   30   60 1
    65   31   61 1
    66   32   62 1
    67   33   63 1
    68   34   64 1
    69   35   65 1
    70   36   66 1
    71   37   67 1
    72   38   68 1
    73   39   69 1
    74   40   70 1
    75   41   71 1
    76   42   72 1
    77   43   73 1
@<TRIPOS>MOLECULE
DHY
   20    20     0     0     0
SMALL
NO_CHARGES

@<TRIPOS>ATOM
      1 C1          0.4407   -0.0529    0.0000 CA        1 <0>         0.0000
      2 C2          0.4407   -0.8779    0.0000 CA        1 <0>         0.0000
      3 C3         -0.2737   -1.2904    0.0000 CA        1 <0>         0.0000
      4 C4         -0.9882   -0.8779    0.0000 CA        1 <0>         0.0000
      5 C5         -0.9882   -0.0529    0.0000 CA        1 <0>         0.0000
      6 C6         -0.2737    0.3596    0.0000 CA        1 <0>         0.0000
      7 C7          1.1552    0.3596    0.0000 CT        1 <0>         0.0000
      8 C8          1.1552    1.1846    0.0000 C         1 <0>         0.0000
      9 O1          1.8697    1.5971    0.0000 O         1 <0>         0.0000
     10 O2          0.4407    1.5971    0.0000 OH        1 <0>         0.0000
     11 O3         -0.2737   -2.1154    0.0000 OH        1 <0>         0.0000
     12 O4         -1.7027   -1.2904    0.0000 OH        1 <0>         0.0000
     13 H1          0.4407   -0.8779    0.0000 HA        1 <0>         0.0000
     14 H2         -0.9882   -0.0529    0.0000 HA        1 <0>         0.0000
     15 H3         -0.2737    0.3596    0.0000 HA        1 <0>         0.0000
     16 H4          1.1552    0.3596    0.0000 HC        1 <0>         0.0000
     17 H5          1.1552    0.3596    0.0000 HC        1 <0>         0.0000
     18 H6          0.4407    1.5971    0.0000 HO        1 <0>         0.0000
     19 H7         -0.2737   -2.1154    0.0000 HO        1 <0>         0.0000
     20 H8         -1.7027   -1.2904    0.0000 HO        1 <0>         0.0000
@<TRIPOS>BOND
     1    1    2 ar
     2    1    6 ar
     3    1    7 1
     4    2    3 ar
     5    3    4 ar
     6    3   11 1
     7    4    5 ar
     8    4   12 1
     9    5    6 ar
    10    7    8 1
    11    8    9 2
    12    8   10 1
    13    2   13 1
    14    5   14 1
    15    6   15 1
    16    7   16 1
    17    7   17 1
    18   10   18 1
    19   11   19 1
    20   12   20 1
@<TRIPOS>MOLECULE
SN1
   21    21     0     0     0
SMALL
NO_CHARGES

@<TRIPOS>ATOM
      1 C1          0.8195    1.1399    0.0000 CM        1 <0>         0.0000
      2 C2          0.8195    0.3149    0.0000 CM        1 <0>         0.0000
      3 C3          0.1050   -0.0976    0.0000 CA        1 <0>         0.0000
      4 C4          0.1050   -0.9226    0.0000 CA        1 <0>         0.0000
      5 C5         -0.6094   -1.3351    0.0000 CA        1 <0>         0.0000
      6 C6         -0.6094    0.3149    0.0000 CA        1 <0>         0.0000
      7 C7         -1.3239   -0.0976    0.0000 CA        1 <0>         0.0000
      8 C8         -1.3239   -0.9226    0.0000 CA        1 <0>         0.0000
      9 O1         -2.0384   -1.3351    0.0000 OH        1 <0>         0.0000
     10 O2          0.8195   -1.3351    0.0000 OH        1 <0>         0.0000
     11 C9          1.5340    1.5524    0.0000 C         1 <0>         0.0000
     12 O3          1.5340    2.3774    0.0000 O         1 <0>         0.0000
     13 O4          2.2484    1.1399    0.0000 OH        1 <0>         0.0000
     14 H1          0.8195    1.1399    0.0000 HA        1 <0>         0.0000
     15 H2          0.8195    0.3149    0.0000 HA        1 <0>         0.0000
     16 H3         -0.6094   -1.3351    0.0000 HA        1 <0>         0.0000
     17 H4         -0.6094    0.3149    0.0000 HA        1 <0>         0.0000
     18 H5         -1.3239   -0.0976    0.0000 HA        1 <0>         0.0000
     19 H6         -2.0384   -1.3351    0.0000 HO        1 <0>         0.0000
     20 H7          0.8195   -1.3351    0.0000 HO        1 <0>         0.0000
     21 H8          2.2484    1.1399    0.0000 HO        1 <0>         0.0000
@<TRIPOS>BOND
     1    1    2 2
     2    1   11 1
     3    2    3 1
     4    3    4 ar
     5    3    6 ar
     6    4    5 ar
     7    4   10 1
     8    5    8 ar
     9    6    7 ar
    10    7    8 ar
    11    8    9 1
    12   11   12 2
    13   11   13 1
    14    1   14 1
    15    2   15 1
    16    5   16 1
    17    6   17 1
    18    7   18 1
    19    9   19 1
    20   10   20 1
    21   13   21 1
@<TRIPOS>MOLECULE
AND
   49    52     0     0     0
SMALL
NO_CHARGES

@<TRIPOS>ATOM
      1 C1          1.4289   -0.5277    0.0000 CT        1 <0>         0.0000
      2 C2          2.2410   -0.3824    0.0000 CT        1 <0>         0.0000
      3 C3          2.5213    0.3935    0.0000 CT        1 <0>         0.0000
      4 O1          3.3334    0.5387    0.0000 OH        1 <0>         0.0000
      5 C4          1.9895    1.0242    0.0000 CT        1 <0>         0.0000
      6 C5          1.1774    0.8790    0.0000 CM        1 <0>         0.0000
      7 C6          0.6455    1.5097    0.0000 CM        1 <0>         0.0000
      8 C7         -0.1666    1.3645    0.0000 CT        1 <0>         0.0000
      9 C8         -0.4469    0.5885    0.0000 CT        1 <0>         0.0000
     10 C9          0.0849   -0.0422    0.0000 CT        1 <0>         0.0000
     11 C10         0.8971    0.1030    0.0000 CT        1 <0>         0.0000
     12 C11        -0.1954   -0.8181    0.0000 CT        1 <0>         0.0000
     13 C12        -1.0075   -0.9633    0.0000 CT        1 <0>         0.0000
     14 C13        -1.5393   -0.3326    0.0000 CT        1 <0>         0.0000
     15 C14        -1.2590    0.4433    0.0000 CT        1 <0>         0.0000
     16 C15        -1.9103    0.9497    0.0000 CT        1 <0>         0.0000
     17 C16        -2.5932    0.4867    0.0000 CT        1 <0>         0.0000
     18 C17        -2.3639   -0.3058    0.0000 C         1 <0>         0.0000
     19 O2         -2.8702   -0.9571    0.0000 O         1 <0>         0.0000
     20 C18        -1.8992   -1.0750    0.0000 CT        1 <0>         0.0000
     21 C19         0.6168   -0.6729    0.0000 CT        1 <0>         0.0000
     22 H1          2.8977   -0.0529    0.0000 H1        1 <0>         0.0000
     23 H2         -0.8233    1.0350    0.0000 HC        1 <0>         0.0000
     24 H3          0.2860   -0.5904    0.0000 HC        1 <0>         0.0000
     25 H4         -1.1191    1.0102    0.0000 HC        1 <0>         0.0000
     26 H5          1.4289   -0.5277    0.0000 HC        1 <0>         0.0000
     27 H6          1.4289   -0.5277    0.0000 HC        1 <0>         0.0000
     28 H7          2.2410   -0.3824    0.0000 HC        1 <0>         0.0000
     29 H8          2.2410   -0.3824    0.0000 HC        1 <0>         0.0000
     30 H9          3.3334    0.5387    0.0000 HO        1 <0>         0.0000
     31 H10         1.9895    1.0242    0.0000 HC        1 <0>         0.0000
     32 H11         1.9895    1.0242    0.0000 HC        1 <0>         0.0000
     33 H12         0.6455    1.5097    0.0000 HA        1 <0>         0.0000
     34 H13        -0.1666    1.3645    0.0000 HC        1 <0>         0.0000
     35 H14        -0.1666    1.3645    0.0000 HC        1 <0>         0.0000
     36 H15        -0.1954   -0.8181    0.0000 HC        1 <0>         0.0000
     37 H16        -0.1954   -0.8181    0.0000 HC        1 <0>         0.0000
     38 H17        -1.0075   -0.9633    0.0000 HC        1 <0>         0.0000
     39 H18        -1.0075   -0.9633    0.0000 HC        1 <0>         0.0000
     40 H19        -1.9103    0.9497    0.0000 HC        1 <0>         0.0000
     41 H20        -1.9103    0.9497    0.0000 HC        1 <0>         0.0000
     42 H21        -2.5932    0.4867    0.0000 HC        1 <0>         0.0000
     43 H22        -2.5932    0.4867    0.0000 HC        1 <0>         0.0000
     44 H23        -1.8992   -1.0750    0.0000 HC        1 <0>         0.0000
     45 H24        -1.8992   -1.0750    0.0000 HC        1 <0>         0.0000
     46 H25        -1.8992   -1.0750    0.0000 HC        1 <0>         0.0000
     47 H26         0.6168   -0.6729    0.0000 HC        1 <0>         0.0000
     48 H27         0.6168   -0.6729    0.0000 HC        1 <0>         0.0000
     49 H28         0.6168   -0.6729    0.0000 HC        1 <0>         0.0000
@<TRIPOS>BOND
     1    1    2 1
     2    1   11 1
     3    2    3 1
     4    3    4 1
     5    3    5 1
     6    3   22 1
     7    5    6 1
     8    6    7 2
     9    6   11 1
    10    7    8 1
    11    8    9 1
    12    9   10 1
    13    9   15 1
    14    9   23 1
    15   10   11 1
    16   10   12 1
    17   10   24 1
    18   11   21 1
    19   12   13 1
    20   13   14 1
    21   14   15 1
    22   14   18 1
    23   14   20 1
    24   15   16 1
    25   15   25 1
    26   16   17 1
    27   17   18 1
    28   18   19 2
    29    1   26 1
    30    1   27 1
    31    2   28 1
    32    2   29 1
    33    4   30 1
    34    5   31 1
    35    5   32 1
    36    7   33 1
    37    8   34 1
    38    8   35 1
    39   12   36 1
    40   12   37 1
    41   13   38 1
    42   13   39 1
    43   16   40 1
    44   16   41 1
    45   17   42 1
    46   17   43 1
    47   20   44 1
    48   20   45 1
    49   20   46 1
    50   21   47 1
    51   21   48 1
    52   21   49 1
@<TRIPOS>MOLECULE
*****
   21    20     0     0     0
SMALL
NO_CHARGES

@<TRIPOS>ATOM
      1 O1          4.6184    2.6664    0.0000 OH        1 <0>         0.0000
      2 C1          4.6184    1.8414    0.0000 CT        1 <0>         0.0000
      3 C2          3.9039    1.4289    0.0000 CT        1 <0>         0.0000
      4 C3          3.1895    1.8414    0.0000 CT        1 <0>         0.0000
      5 C4          2.4750    1.4289    0.0000 C         1 <0>         0.0000
      6 O2          1.7605    1.8414    0.0000 OH        1 <0>         0.0000
      7 O3          2.4750    0.6039    0.0000 O         1 <0>         0.0000
      8 C5          3.9039    0.6039    0.0000 C         1 <0>         0.0000
      9 O4          3.1895    0.1914    0.0000 OH        1 <0>         0.0000
     10 O5          4.6184    0.1914    0.0000 O         1 <0>         0.0000
     11 C6          5.3329    1.4289    0.0000 C         1 <0>         0.0000
     12 O6          6.0474    1.8414    0.0000 OH        1 <0>         0.0000
     13 O7          5.3329    0.6039    0.0000 O         1 <0>         0.0000
     14 H1          4.6184    2.6664    0.0000 HO        1 <0>         0.0000
     15 H2          4.6184    1.8414    0.0000 H1        1 <0>         0.0000
     16 H3          3.9039    1.4289    0.0000 HC        1 <0>         0.0000
     17 H4          3.1895    1.8414    0.0000 HC        1 <0>         0.0000
     18 H5          3.1895    1.8414    0.0000 HC        1 <0>         0.0000
     19 H6          1.7605    1.8414    0.0000 HO        1 <0>         0.0000
     20 H7          3.1895    0.1914    0.0000 HO        1 <0>         0.0000
     21 H8          6.0474    1.8414    0.0000 HO        1 <0>         0.0000
@<TRIPOS>BOND
     1    1    2 1
     2    2    3 1
     3    3    4 1
     4    4    5 1
     5    5    6 1
     6    5    7 2
     7    3    8 1
     8    8    9 1
     9    8   10 2
    10    2   11 1
    11   11   12 1
    12   11   13 2
    13    1   14 1
    14    2   15 1
    15    3   16 1
    16    4   17 1
    17    4   18 1
    18    6   19 1
    19    9   20 1
    20   12   21 1
@<TRIPOS>MOLECULE
*****
   27    28     0     0     0
SMALL
NO_CHARGES

@<TRIPOS>ATOM
      1 C1          1.6436    0.3570    0.0000 CT        1 <0>         0.0000
      2 C2          0.9807   -0.1341    0.0000 CT        1 <0>         0.0000
      3 C3          0.2526    0.2537    0.0000 CT        1 <0>         0.0000
      4 C4          1.1407   -0.9495    0.0000 CT        1 <0>         0.0000
      5 C5          0.5004   -1.3997    0.0000 CT        1 <0>         0.0000
      6 C6          0.1351   -2.0602    0.0000 CT        1 <0>         0.0000
      7 C7          0.9106   -1.6699    0.0000 CT        1 <0>         0.0000
      8 C8          0.9094   -2.4949    0.0000 CT        1 <0>         0.0000
      9 C9          1.6411   -2.0402    0.0000 C         1 <0>         0.0000
     10 O1          1.9087   -2.8206    0.0000 O         1 <0>         0.0000
     11 C10         1.9362   -1.4148    0.0000 CT        1 <0>         0.0000
     12 H1          1.6436    0.3570    0.0000 HC        1 <0>         0.0000
     13 H2          1.6436    0.3570    0.0000 HC        1 <0>         0.0000
     14 H3          1.6436    0.3570    0.0000 HC        1 <0>         0.0000
     15 H4          0.2526    0.2537    0.0000 HC        1 <0>         0.0000
     16 H5          0.2526    0.2537    0.0000 HC        1 <0>         0.0000
     17 H6          0.2526    0.2537    0.0000 HC        1 <0>         0.0000
     18 H7          1.1407   -0.9495    0.0000 HC        1 <0>         0.0000
     19 H8          0.5004   -1.3997    0.0000 HC        1 <0>         0.0000
     20 H9          0.5004   -1.3997    0.0000 HC        1 <0>         0.0000
     21 H10         0.1351   -2.0602    0.0000 HC        1 <0>         0.0000
     22 H11         0.1351   -2.0602    0.0000 HC        1 <0>         0.0000
     23 H12         0.9094   -2.4949    0.0000 HC        1 <0>         0.0000
     24 H13         0.9094   -2.4949    0.0000 HC        1 <0>         0.0000
     25 H14         0.9094   -2.4949    0.0000 HC        1 <0>         0.0000
     26 H15         1.9362   -1.4148    0.0000 HC        1 <0>         0.0000
     27 H16         1.9362   -1.4148    0.0000 HC        1 <0>         0.0000
@<TRIPOS>BOND
     1    1    2 1
     2    2    3 1
     3    2    4 1
     4    4    5 1
     5    5    6 1
     6    6    7 1
     7    2    7 1
     8    7    8 1
     9    7    9 1
    10    9   10 2
    11    9   11 1
    12    4   11 1
    13    1   12 1
    14    1   13 1
    15    1   14 1
    16    3   15 1
    17    3   16 1
    18    3   17 1
    19    4   18 1
    20    5   19 1
    21    5   20 1
    22    6   21 1
    23    6   22 1
    24    8   23 1
    25    8   24 1
    26    8   25 1
    27   11   26 1
    28   11   27 1
@<TRIPOS>MOLECULE
*****
   16    15     0     0     0
SMALL
NO_CHARGES

@<TRIPOS>ATOM
      1 C1         -0.1914    0.7145    0.0000 CT        1 <0>         0.0000
      2 O1          0.5230    1.1270    0.0000 OS        1 <0>         0.0000
      3 C2          1.2375    0.7145    0.0000 CT        1 <0>         0.0000
      4 C3          1.9520    1.1270    0.0000 CT        1 <0>         0.0000
      5 O2          2.6664    0.7145    0.0000 OS        1 <0>         0.0000
      6 C4          3.3809    1.1270    0.0000 CT        1 <0>         0.0000
      7 H1         -0.1914    0.7145    0.0000 H1        1 <0>         0.0000
      8 H2         -0.1914    0.7145    0.0000 H1        1 <0>         0.0000
      9 H3         -0.1914    0.7145    0.0000 H1        1 <0>         0.0000
     10 H4          1.2375    0.7145    0.0000 H1        1 <0>         0.0000
     11 H5          1.2375    0.7145    0.0000 H1        1 <0>         0.0000
     12 H6          1.9520    1.1270    0.0000 H1        1 <0>         0.0000
     13 H7          1.9520    1.1270    0.0000 H1        1 <0>         0.0000
     14 H8          3.3809    1.1270    0.0000 H1        1 <0>         0.0000
     15 H9          3.3809    1.1270    0.0000 H1        1 <0>         0.0000
     16 H10         3.3809    1.1270    0.0000 H1        1 <0>         0.0000
@<TRIPOS>BOND
     1    1    2 1
     2    2    3 1
     3    3    4 1
     4    4    5 1
     5    5    6 1
     6    1    7 1
     7    1    8 1
     8    1    9 1
     9    3   10 1
    10    3   11 1
    11    4   12 1
    12    4   13 1
    13    6   14 1
    14    6   15 1
    15    6   16 1
@<TRIPOS>MOLECULE
NLA
   24    25     0     0     0
SMALL
NO_CHARGES

@<TRIPOS>ATOM
      1 C1          0.3236    0.0242    0.0000 CB        1 <0>         0.0000
      2 C2         -0.3909   -0.3883    0.0000 CA        1 <0>         0.0000
      3 C3         -1.1054    0.0242    0.0000 CA        1 <0>         0.0000
      4 C4         -1.1054    0.8492    0.0000 CA        1 <0>         0.0000
      5 C5         -0.3909    1.2617    0.0000 CA        1 <0>         0.0000
      6 C6          0.3236    0.8492    0.0000 CB        1 <0>         0.0000
      7 C7          1.0380    1.2617    0.0000 CA        1 <0>         0.0000
      8 C8          1.7525    0.8492    0.0000 CA        1 <0>         0.0000
      9 C9          1.7525    0.0242    0.0000 CA        1 <0>         0.0000
     10 C10         1.0380   -0.3883    0.0000 CA        1 <0>         0.0000
     11 C11        -0.3909   -1.2133    0.0000 CT        1 <0>         0.0000
     12 C12        -1.1054   -1.6258    0.0000 C         1 <0>         0.0000
     13 O1         -1.1054   -2.4508    0.0000 O         1 <0>         0.0000
     14 O2         -1.8198   -1.2133    0.0000 OH        1 <0>         0.0000
     15 H1         -1.1054    0.0242    0.0000 HA        1 <0>         0.0000
     16 H2         -1.1054    0.8492    0.0000 HA        1 <0>         0.0000
     17 H3         -0.3909    1.2617    0.0000 HA        1 <0>         0.0000
     18 H4          1.0380    1.2617    0.0000 HA        1 <0>         0.0000
     19 H5          1.7525    0.8492    0.0000 HA        1 <0>         0.0000
     20 H6          1.7525    0.0242    0.0000 HA        1 <0>         0.0000
     21 H7          1.0380   -0.3883    0.0000 HA        1 <0>         0.0000
     22 H8         -0.3909   -1.2133    0.0000 HC        1 <0>         0.0000
     23 H9         -0.3909   -1.2133    0.0000 HC        1 <0>         0.0000
     24 H10        -1.8198   -1.2133    0.0000 HO        1 <0>         0.0000
@<TRIPOS>BOND
     1    1    2 ar
     2    1    6 ar
     3    1   10 ar
     4    2    3 ar
     5    2   11 1
     6    3    4 ar
     7    4    5 ar
     8    5    6 ar
     9    6    7 ar
    10    7    8 ar
    11    8    9 ar
    12    9   10 ar
    13   11   12 1
    14   12   13 2
    15   12   14 1
    16    3   15 1
    17    4   16 1
    18    5   17 1
    19    7   18 1
    20    8   19 1
    21    9   20 1
    22   10   21 1
    23   11   22 1
    24   11   23 1
    25   14   24 1
@<TRIPOS>MOLECULE
*****
   16    16     0     0     0
SMALL
NO_CHARGES

@<TRIPOS>ATOM
      1 O1          1.4289   -1.6500    0.0000 OH        1 <0>         0.0000
      2 C1          0.7145   -1.2375    0.0000 CT        1 <0>         0.0000
      3 C2          0.7145   -0.4125    0.0000 CA        1 <0>         0.0000
      4 C3          0.0000    0.0000    0.0000 CA        1 <0>         0.0000
      5 C4          0.0000    0.8250    0.0000 C         1 <0>         0.0000
      6 O2         -0.7145    1.2375    0.0000 O         1 <0>         0.0000
      7 C5          0.7145    1.2375    0.0000 CA        1 <0>         0.0000
      8 O3          0.7145    2.0625    0.0000 OH        1 <0>         0.0000
      9 C6          1.4289    0.8250    0.0000 CA        1 <0>         0.0000
     10 O4          1.4289    0.0000    0.0000 OS        1 <0>         0.0000
     11 H1          1.4289   -1.6500    0.0000 HO        1 <0>         0.0000
     12 H2          0.7145   -1.2375    0.0000 H1        1 <0>         0.0000
     13 H3          0.7145   -1.2375    0.0000 H1        1 <0>         0.0000
     14 H4          0.0000    0.0000    0.0000 HA        1 <0>         0.0000
     15 H5          0.7145    2.0625    0.0000 HO        1 <0>         0.0000
     16 H6          1.4289    0.8250    0.0000 H4        1 <0>         0.0000
@<TRIPOS>BOND
     1    1    2 1
     2    2    3 1
     3    3    4 2
     4    4    5 1
     5    5    6 2
     6    5    7 1
     7    7    8 1
     8    7    9 2
     9    9   10 1
    10    3   10 1
    11    1   11 1
    12    2   12 1
    13    2   13 1
    14    4   14 1
    15    8   15 1
    16    9   16 1
@<TRIPOS>MOLECULE
*****
   13    12     0     0     0
SMALL
NO_CHARGES

@<TRIPOS>ATOM
      1 C1          1.2375    2.1434    0.0000 CT        1 <0>         0.0000
      2 C2          0.8250    1.4289    0.0000 C         1 <0>         0.0000
      3 O1          0.0000    1.4289    0.0000 O         1 <0>         0.0000
      4 C3          1.2375    0.7145    0.0000 CT        1 <0>         0.0000
      5 C4          0.8250    0.0000    0.0000 C         1 <0>         0.0000
      6 O2          1.2375   -0.7145    0.0000 OH        1 <0>         0.0000
      7 O3          0.0000    0.0000    0.0000 O         1 <0>         0.0000
      8 H1          1.2375    2.1434    0.0000 HC        1 <0>         0.0000
      9 H2          1.2375    2.1434    0.0000 HC        1 <0>         0.0000
     10 H3          1.2375    2.1434    0.0000 HC        1 <0>         0.0000
     11 H4          1.2375    0.7145    0.0000 HC        1 <0>         0.0000
     12 H5          1.2375    0.7145    0.0000 HC        1 <0>         0.0000
     13 H6          1.2375   -0.7145    0.0000 HO        1 <0>         0.0000
@<TRIPOS>BOND
     1    1    2 1
     2    2    3 2
     3    2    4 1
     4    4    5 1
     5    5    6 1
     6    5    7 2
     7    1    8 1
     8    1    9 1
     9    1   10 1
    10    4   11 1
    11    4   12 1
    12    6   13 1
@<TRIPOS>MOLECULE
*****
   12    11     0     0     0
SMALL
NO_CHARGES

@<TRIPOS>ATOM
      1 O1          2.4750   -1.4289    0.0000 OH        1 <0>         0.0000
      2 C1          2.0625   -0.7145    0.0000 CT        1 <0>         0.0000
      3 C2          1.2375   -0.7145    0.0000 C         1 <0>         0.0000
      4 O2          0.8250   -1.4289    0.0000 O         1 <0>         0.0000
      5 C3          0.8250    0.0000    0.0000 CT        1 <0>         0.0000
      6 O3          0.0000    0.0000    0.0000 OH        1 <0>         0.0000
      7 H1          2.4750   -1.4289    0.0000 HO        1 <0>         0.0000
      8 H2          2.0625   -0.7145    0.0000 H1        1 <0>         0.0000
      9 H3          2.0625   -0.7145    0.0000 H1        1 <0>         0.0000
     10 H4          0.8250    0.0000    0.0000 H1        1 <0>         0.0000
     11 H5          0.8250    0.0000    0.0000 H1        1 <0>         0.0000
     12 H6          0.0000    0.0000    0.0000 HO        1 <0>         0.0000
@<TRIPOS>BOND
     1    1    2 1
     2    2    3 1
     3    3    4 2
     4    3    5 1
     5    5    6 1
     6    1    7 1
     7    2    8 1
     8    2    9 1
     9    5   10 1
    10    5   11 1
    11    6   12 1
@<TRIPOS>MOLECULE
*****
   16    16     0     0     0
SMALL
NO_CHARGES

@<TRIPOS>ATOM
      1 C1          2.1434   -0.4125    0.0000 CT        1 <0>         0.0000
      2 C2          1.4289    0.0000    0.0000 CA        1 <0>         0.0000
      3 C3          0.7145   -0.4125    0.0000 CA        1 <0>         0.0000
      4 C4          0.0000    0.0000    0.0000 CA        1 <0>         0.0000
      5 C5          0.0000    0.8250    0.0000 CA        1 <0>         0.0000
      6 C6          0.7145    1.2375    0.0000 CA        1 <0>         0.0000
      7 O1          0.7145    2.0625    0.0000 OH        1 <0>         0.0000
      8 C7          1.4289    0.8250    0.0000 CA        1 <0>         0.0000
      9 H1          2.1434   -0.4125    0.0000 HC        1 <0>         0.0000
     10 H2          2.1434   -0.4125    0.0000 HC        1 <0>         0.0000
     11 H3          2.1434   -0.4125    0.0000 HC        1 <0>         0.0000
     12 H4          0.7145   -0.4125    0.0000 HA        1 <0>         0.0000
     13 H5          0.0000    0.0000    0.0000 HA        1 <0>         0.0000
     14 H6          0.0000    0.8250    0.0000 HA        1 <0>         0.0000
     15 H7          0.7145    2.0625    0.0000 HO        1 <0>         0.0000
     16 H8          1.4289    0.8250    0.0000 HA        1 <0>         0.0000
@<TRIPOS>BOND
     1    1    2 1
     2    2    3 ar
     3    3    4 ar
     4    4    5 ar
     5    5    6 ar
     6    6    7 1
     7    6    8 ar
     8    2    8 ar
     9    1    9 1
    10    1   10 1
    11    1   11 1
    12    3   12 1
    13    4   13 1
    14    5   14 1
    15    7   15 1
    16    8   16 1
@<TRIPOS>MOLECULE
*****
  104   107     0     0     0
SMALL
NO_CHARGES

@<TRIPOS>ATOM
      1 C1          2.5402   -2.5611    0.0000 CT        1 <0>         0.0000
      2 O1          1.8603   -3.0284    0.0000 OS        1 <0>         0.0000
      3 C2          1.1157   -2.6732    0.0000 CT        1 <0>         0.0000
      4 C3          1.0509   -1.8507    0.0000 CT        1 <0>         0.0000
      5 C4          0.3475   -1.4197    0.0000 CT        1 <0>         0.0000
      6 C5          0.5401   -0.6175    0.0000 CT        1 <0>         0.0000
      7 C6          1.3625   -0.5527    0.0000 CT        1 <0>         0.0000
      8 C7          1.6783    0.2095    0.0000 CT        1 <0>         0.0000
      9 C8          1.0949    0.7928    0.0000 CT        1 <0>         0.0000
     10 C9          2.4405    0.5252    0.0000 CT        1 <0>         0.0000
     11 O2          2.4405    1.3502    0.0000 OH        1 <0>         0.0000
     12 C10         3.2027    0.2095    0.0000 CT        1 <0>         0.0000
     13 O3          3.7860    0.7928    0.0000 OS        1 <0>         0.0000
     14 C11         3.5725    1.5897    0.0000 CT        1 <0>         0.0000
     15 O4          2.7756    1.8032    0.0000 OS        1 <0>         0.0000
     16 C12         2.5621    2.6001    0.0000 CT        1 <0>         0.0000
     17 C13         1.7652    2.8136    0.0000 CT        1 <0>         0.0000
     18 O5          1.1818    2.2303    0.0000 OS        1 <0>         0.0000
     19 C14         0.3849    2.4438    0.0000 CT        1 <0>         0.0000
     20 C15         0.5985    3.2407    0.0000 CT        1 <0>         0.0000
     21 C16         0.1714    1.6469    0.0000 CT        1 <0>         0.0000
     22 C17        -0.4119    2.6573    0.0000 CM        1 <0>         0.0000
     23 C18        -0.9953    2.0740    0.0000 CM        1 <0>         0.0000
     24 C19         3.1454    3.1835    0.0000 CT        1 <0>         0.0000
     25 O6          2.9319    3.9804    0.0000 OH        1 <0>         0.0000
     26 C20         3.9423    2.9700    0.0000 CT        1 <0>         0.0000
     27 O7          4.5257    3.5533    0.0000 OS        1 <0>         0.0000
     28 C21         4.3122    4.3502    0.0000 C         1 <0>         0.0000
     29 C22         3.5153    4.5637    0.0000 CT        1 <0>         0.0000
     30 O8          4.8955    4.9336    0.0000 O         1 <0>         0.0000
     31 C23         4.1559    2.1731    0.0000 CT        1 <0>         0.0000
     32 O9          4.9528    1.9595    0.0000 OH        1 <0>         0.0000
     33 C24         3.5184   -0.5527    0.0000 CM        1 <0>         0.0000
     34 C25         4.3408   -0.6175    0.0000 CM        1 <0>         0.0000
     35 C26         4.5334   -1.4197    0.0000 CT        1 <0>         0.0000
     36 C27         3.8300   -1.8507    0.0000 CT        1 <0>         0.0000
     37 O10         3.7653   -2.6732    0.0000 OH        1 <0>         0.0000
     38 C28         3.2027   -1.3149    0.0000 CT        1 <0>         0.0000
     39 C29         3.0736   -2.1298    0.0000 CT        1 <0>         0.0000
     40 C30         2.4405   -1.6307    0.0000 CM        1 <0>         0.0000
     41 C31         1.6783   -1.3149    0.0000 CM        1 <0>         0.0000
     42 C32         4.8766    0.0099    0.0000 CT        1 <0>         0.0000
     43 C33         4.6012    0.7875    0.0000 CT        1 <0>         0.0000
     44 C34         5.6878   -0.1405    0.0000 CT        1 <0>         0.0000
     45 O11         5.9632   -0.9182    0.0000 OS        1 <0>         0.0000
     46 C35         6.7744   -1.0685    0.0000 C         1 <0>         0.0000
     47 C36         7.3102   -0.4412    0.0000 CT        1 <0>         0.0000
     48 O12         7.0498   -1.8462    0.0000 O         1 <0>         0.0000
     49 H1          2.5402   -2.5611    0.0000 H1        1 <0>         0.0000
     50 H2          2.5402   -2.5611    0.0000 H1        1 <0>         0.0000
     51 H3          2.5402   -2.5611    0.0000 H1        1 <0>         0.0000
     52 H4          1.1157   -2.6732    0.0000 H1        1 <0>         0.0000
     53 H5          1.1157   -2.6732    0.0000 H1        1 <0>         0.0000
     54 H6          1.0509   -1.8507    0.0000 HC        1 <0>         0.0000
     55 H7          0.3475   -1.4197    0.0000 HC        1 <0>         0.0000
     56 H8          0.3475   -1.4197    0.0000 HC        1 <0>         0.0000
     57 H9          0.5401   -0.6175    0.0000 HC        1 <0>         0.0000
     58 H10         0.5401   -0.6175    0.0000 HC        1 <0>         0.0000
     59 H11         1.3625   -0.5527    0.0000 HC        1 <0>         0.0000
     60 H12         1.6783    0.2095    0.0000 HC        1 <0>         0.0000
     61 H13         1.0949    0.7928    0.0000 HC        1 <0>         0.0000
     62 H14         1.0949    0.7928    0.0000 HC        1 <0>         0.0000
     63 H15         1.0949    0.7928    0.0000 HC        1 <0>         0.0000
     64 H16         2.4405    0.5252    0.0000 H1        1 <0>         0.0000
     65 H17         2.4405    1.3502    0.0000 HO        1 <0>         0.0000
     66 H18         3.2027    0.2095    0.0000 H1        1 <0>         0.0000
     67 H19         3.5725    1.5897    0.0000 H2        1 <0>         0.0000
     68 H20         2.5621    2.6001    0.0000 H1        1 <0>         0.0000
     69 H21         1.7652    2.8136    0.0000 H1        1 <0>         0.0000
     70 H22         1.7652    2.8136    0.0000 H1        1 <0>         0.0000
     71 H23         0.5985    3.2407    0.0000 HC        1 <0>         0.0000
     72 H24         0.5985    3.2407    0.0000 HC        1 <0>         0.0000
     73 H25         0.5985    3.2407    0.0000 HC        1 <0>         0.0000
     74 H26         0.1714    1.6469    0.0000 HC        1 <0>         0.0000
     75 H27         0.1714    1.6469    0.0000 HC        1 <0>         0.0000
     76 H28         0.1714    1.6469    0.0000 HC        1 <0>         0.0000
     77 H29        -0.4119    2.6573    0.0000 HA        1 <0>         0.0000
     78 H30        -0.9953    2.0740    0.0000 HA        1 <0>         0.0000
     79 H31        -0.9953    2.0740    0.0000 HA        1 <0>         0.0000
     80 H32         3.1454    3.1835    0.0000 H1        1 <0>         0.0000
     81 H33         2.9319    3.9804    0.0000 HO        1 <0>         0.0000
     82 H34         3.9423    2.9700    0.0000 H1        1 <0>         0.0000
     83 H35         3.5153    4.5637    0.0000 HC        1 <0>         0.0000
     84 H36         3.5153    4.5637    0.0000 HC        1 <0>         0.0000
     85 H37         3.5153    4.5637    0.0000 HC        1 <0>         0.0000
     86 H38         4.1559    2.1731    0.0000 H1        1 <0>         0.0000
     87 H39         4.9528    1.9595    0.0000 HO        1 <0>         0.0000
     88 H40         4.5334   -1.4197    0.0000 HC        1 <0>         0.0000
     89 H41         4.5334   -1.4197    0.0000 HC        1 <0>         0.0000
     90 H42         3.8300   -1.8507    0.0000 H1        1 <0>         0.0000
     91 H43         3.7653   -2.6732    0.0000 HO        1 <0>         0.0000
     92 H44         3.0736   -2.1298    0.0000 HC        1 <0>         0.0000
     93 H45         3.0736   -2.1298    0.0000 HC        1 <0>         0.0000
     94 H46         3.0736   -2.1298    0.0000 HC        1 <0>         0.0000
     95 H47         2.4405   -1.6307    0.0000 HA        1 <0>         0.0000
     96 H48         4.8766    0.0099    0.0000 HC        1 <0>         0.0000
     97 H49         4.6012    0.7875    0.0000 HC        1 <0>         0.0000
     98 H50         4.6012    0.7875    0.0000 HC        1 <0>         0.0000
     99 H51         4.6012    0.7875    0.0000 HC        1 <0>         0.0000
    100 H52         5.6878   -0.1405    0.0000 H1        1 <0>         0.0000
    101 H53         5.6878   -0.1405    0.0000 H1        1 <0>         0.0000
    102 H54         7.3102   -0.4412    0.0000 HC        1 <0>         0.0000
    103 H55         7.3102   -0.4412    0.0000 HC        1 <0>         0.0000
    104 H56         7.3102   -0.4412    0.0000 HC        1 <0>         0.0000
@<TRIPOS>BOND
     1    1    2 1
     2    2    3 1
     3    3    4 1
     4    4    5 1
     5    5    6 1
     6    6    7 1
     7    7    8 1
     8    8    9 1
     9    8   10 1
    10   10   11 1
    11   10   12 1
    12   12   13 1
    13   13   14 1
    14   14   15 1
    15   15   16 1
    16   16   17 1
    17   17   18 1
    18   18   19 1
    19   19   20 1
    20   19   21 1
    21   19   22 1
    22   22   23 2
    23   16   24 1
    24   24   25 1
    25   24   26 1
    26   26   27 1
    27   27   28 1
    28   28   29 1
    29   28   30 2
    30   26   31 1
    31   14   31 1
    32   31   32 1
    33   12   33 1
    34   33   34 2
    35   34   35 1
    36   35   36 1
    37   36   37 1
    38   36   38 1
    39   33   38 1
    40   38   39 1
    41   38   40 1
    42   40   41 2
    43    4   41 1
    44    7   41 1
    45   34   42 1
    46   42   43 1
    47   42   44 1
    48   44   45 1
    49   45   46 1
    50   46   47 1
    51   46   48 2
    52    1   49 1
    53    1   50 1
    54    1   51 1
    55    3   52 1
    56    3   53 1
    57    4   54 1
    58    5   55 1
    59    5   56 1
    60    6   57 1
    61    6   58 1
    62    7   59 1
    63    8   60 1
    64    9   61 1
    65    9   62 1
    66    9   63 1
    67   10   64 1
    68   11   65 1
    69   12   66 1
    70   14   67 1
    71   16   68 1
    72   17   69 1
    73   17   70 1
    74   20   71 1
    75   20   72 1
    76   20   73 1
    77   21   74 1
    78   21   75 1
    79   21   76 1
    80   22   77 1
    81   23   78 1
    82   23   79 1
    83   24   80 1
    84   25   81 1
    85   26   82 1
    86   29   83 1
    87   29   84 1
    88   29   85 1
    89   31   86 1
    90   32   87 1
    91   35   88 1
    92   35   89 1
    93   36   90 1
    94   37   91 1
    95   39   92 1
    96   39   93 1
    97   39   94 1
    98   40   95 1
    99   42   96 1
   100   43   97 1
   101   43   98 1
   102   43   99 1
   103   44  100 1
   104   44  101 1
   105   47  102 1
   106   47  103 1
   107   47  104 1
@<TRIPOS>MOLECULE
*****
   86    85     0     0     0
SMALL
NO_CHARGES

@<TRIPOS>ATOM
      1 C1         14.1355    8.9862    0.0000 CT        1 <0>         0.0000
      2 C2         14.8500    8.5737    0.0000 CT        1 <0>         0.0000
      3 C3         15.5645    8.9862    0.0000 CT        1 <0>         0.0000
      4 C4         16.2789    8.5737    0.0000 CT        1 <0>         0.0000
      5 C5         16.9934    8.9862    0.0000 CT        1 <0>         0.0000
      6 C6         17.7079    8.5737    0.0000 CT        1 <0>         0.0000
      7 C7         18.4224    8.9862    0.0000 CT        1 <0>         0.0000
      8 C8         19.1368    8.5737    0.0000 CT        1 <0>         0.0000
      9 C9         19.8513    8.9862    0.0000 CT        1 <0>         0.0000
     10 C10        20.5658    8.5737    0.0000 CT        1 <0>         0.0000
     11 C11        21.2802    8.9862    0.0000 CT        1 <0>         0.0000
     12 C12        21.9947    8.5737    0.0000 CT        1 <0>         0.0000
     13 C13        22.7092    8.9862    0.0000 CT        1 <0>         0.0000
     14 C14        22.7092    9.8112    0.0000 CT        1 <0>         0.0000
     15 C15        21.9947   10.2237    0.0000 C         1 <0>         0.0000
     16 O1         21.2802    9.8112    0.0000 OH        1 <0>         0.0000
     17 O2         21.9947   11.0487    0.0000 O         1 <0>         0.0000
     18 O3         23.4237    8.5737    0.0000 OS        1 <0>         0.0000
     19 C16        24.1381    8.9862    0.0000 C         1 <0>         0.0000
     20 O4         24.1381    9.8112    0.0000 O         1 <0>         0.0000
     21 C17        24.8526    8.5737    0.0000 CT        1 <0>         0.0000
     22 C18        25.5671    8.9862    0.0000 CT        1 <0>         0.0000
     23 C19        26.2815    8.5737    0.0000 CT        1 <0>         0.0000
     24 C20        26.9960    8.9862    0.0000 CT        1 <0>         0.0000
     25 C21        27.7105    8.5737    0.0000 CT        1 <0>         0.0000
     26 C22        28.4249    8.9862    0.0000 CT        1 <0>         0.0000
     27 C23        29.1394    8.5737    0.0000 CT        1 <0>         0.0000
     28 C24        29.8539    8.9862    0.0000 CT        1 <0>         0.0000
     29 C25        30.5684    8.5737    0.0000 CT        1 <0>         0.0000
     30 C26        31.2828    8.9862    0.0000 CT        1 <0>         0.0000
     31 C27        31.9973    8.5737    0.0000 CT        1 <0>         0.0000
     32 C28        32.7118    8.9862    0.0000 CT        1 <0>         0.0000
     33 H1         14.1355    8.9862    0.0000 HC        1 <0>         0.0000
     34 H2         14.1355    8.9862    0.0000 HC        1 <0>         0.0000
     35 H3         14.1355    8.9862    0.0000 HC        1 <0>         0.0000
     36 H4         14.8500    8.5737    0.0000 HC        1 <0>         0.0000
     37 H5         14.8500    8.5737    0.0000 HC        1 <0>         0.0000
     38 H6         15.5645    8.9862    0.0000 HC        1 <0>         0.0000
     39 H7         15.5645    8.9862    0.0000 HC        1 <0>         0.0000
     40 H8         16.2789    8.5737    0.0000 HC        1 <0>         0.0000
     41 H9         16.2789    8.5737    0.0000 HC        1 <0>         0.0000
     42 H10        16.9934    8.9862    0.0000 HC        1 <0>         0.0000
     43 H11        16.9934    8.9862    0.0000 HC        1 <0>         0.0000
     44 H12        17.7079    8.5737    0.0000 HC        1 <0>         0.0000
     45 H13        17.7079    8.5737    0.0000 HC        1 <0>         0.0000
     46 H14        18.4224    8.9862    0.0000 HC        1 <0>         0.0000
     47 H15        18.4224    8.9862    0.0000 HC        1 <0>         0.0000
     48 H16        19.1368    8.5737    0.0000 HC        1 <0>         0.0000
     49 H17        19.1368    8.5737    0.0000 HC        1 <0>         0.0000
     50 H18        19.8513    8.9862    0.0000 HC        1 <0>         0.0000
     51 H19        19.8513    8.9862    0.0000 HC        1 <0>         0.0000
     52 H20        20.5658    8.5737    0.0000 HC        1 <0>         0.0000
     53 H21        20.5658    8.5737    0.0000 HC        1 <0>         0.0000
     54 H22        21.2802    8.9862    0.0000 HC        1 <0>         0.0000
     55 H23        21.2802    8.9862    0.0000 HC        1 <0>         0.0000
     56 H24        21.9947    8.5737    0.0000 HC        1 <0>         0.0000
     57 H25        21.9947    8.5737    0.0000 HC        1 <0>         0.0000
     58 H26        22.7092    8.9862    0.0000 H1        1 <0>         0.0000
     59 H27        22.7092    9.8112    0.0000 HC        1 <0>         0.0000
     60 H28        22.7092    9.8112    0.0000 HC        1 <0>         0.0000
     61 H29        21.2802    9.8112    0.0000 HO        1 <0>         0.0000
     62 H30        24.8526    8.5737    0.0000 HC        1 <0>         0.0000
     63 H31        24.8526    8.5737    0.0000 HC        1 <0>         0.0000
     64 H32        25.5671    8.9862    0.0000 HC        1 <0>         0.0000
     65 H33        25.5671    8.9862    0.0000 HC        1 <0>         0.0000
     66 H34        26.2815    8.5737    0.0000 HC        1 <0>         0.0000
     67 H35        26.2815    8.5737    0.0000 HC        1 <0>         0.0000
     68 H36        26.9960    8.9862    0.0000 HC        1 <0>         0.0000
     69 H37        26.9960    8.9862    0.0000 HC        1 <0>         0.0000
     70 H38        27.7105    8.5737    0.0000 HC        1 <0>         0.0000
     71 H39        27.7105    8.5737    0.0000 HC        1 <0>         0.0000
     72 H40        28.4249    8.9862    0.0000 HC        1 <0>         0.0000
     73 H41        28.4249    8.9862    0.0000 HC        1 <0>         0.0000
     74 H42        29.1394    8.5737    0.0000 HC        1 <0>         0.0000
     75 H43        29.1394    8.5737    0.0000 HC        1 <0>         0.0000
     76 H44        29.8539    8.9862    0.0000 HC        1 <0>         0.0000
     77 H45        29.8539    8.9862    0.0000 HC        1 <0>         0.0000
     78 H46        30.5684    8.5737    0.0000 HC        1 <0>         0.0000
     79 H47        30.5684    8.5737    0.0000 HC        1 <0>         0.0000
     80 H48        31.2828    8.9862    0.0000 HC        1 <0>         0.0000
     81 H49        31.2828    8.9862    0.0000 HC        1 <0>         0.0000
     82 H50        31.9973    8.5737    0.0000 HC        1 <0>         0.0000
     83 H51        31.9973    8.5737    0.0000 HC        1 <0>         0.0000
     84 H52        32.7118    8.9862    0.0000 HC        1 <0>         0.0000
     85 H53        32.7118    8.9862    0.0000 HC        1 <0>         0.0000
     86 H54        32.7118    8.9862    0.0000 HC        1 <0>         0.0000
@<TRIPOS>BOND
     1    1    2 1
     2    2    3 1
     3    3    4 1
     4    4    5 1
     5    5    6 1
     6    6    7 1
     7    7    8 1
     8    8    9 1
     9    9   10 1
    10   10   11 1
    11   11   12 1
    12   12   13 1
    13   13   14 1
    14   14   15 1
    15   15   16 1
    16   15   17 2
    17   13   18 1
    18   18   19 1
    19   19   20 2
    20   19   21 1
    21   21   22 1
    22   22   23 1
    23   23   24 1
    24   24   25 1
    25   25   26 1
    26   26   27 1
    27   27   28 1
    28   28   29 1
    29   29   30 1
    30   30   31 1
    31   31   32 1
    32    1   33 1
    33    1   34 1
    34    1   35 1
    35    2   36 1
    36    2   37 1
    37    3   38 1
    38    3   39 1
    39    4   40 1
    40    4   41 1
    41    5   42 1
    42    5   43 1
    43    6   44 1
    44    6   45 1
    45    7   46 1
    46    7   47 1
    47    8   48 1
    48    8   49 1
    49    9   50 1
    50    9   51 1
    51   10   52 1
    52   10   53 1
    53   11   54 1
    54   11   55 1
    55   12   56 1
    56   12   57 1
    57   13   58 1
    58   14   59 1
    59   14   60 1
    60   16   61 1
    61   21   62 1
    62   21   63 1
    63   22   64 1
    64   22   65 1
    65   23   66 1
    66   23   67 1
    67   24   68 1
    68   24   69 1
    69   25   70 1
    70   25   71 1
    71   26   72 1
    72   26   73 1
    73   27   74 1
    74   27   75 1
    75   28   76 1
    76   28   77 1
    77   29   78 1
    78   29   79 1
    79   30   80 1
    80   30   81 1
    81   31   82 1
    82   31   83 1
    83   32   84 1
    84   32   85 1
    85   32   86 1
@<TRIPOS>MOLECULE
*****
   13    12     0     0     0
SMALL
NO_CHARGES

@<TRIPOS>ATOM
      1 C1          2.0625   -0.7145    0.0000 CT        1 <0>         0.0000
      2 C2          1.2375   -0.7145    0.0000 CT        1 <0>         0.0000
      3 O1          0.8250   -1.4289    0.0000 OH        1 <0>         0.0000
      4 C3          0.8250    0.0000    0.0000 CT        1 <0>         0.0000
      5 O2          0.0000    0.0000    0.0000 OH        1 <0>         0.0000
      6 H1          2.0625   -0.7145    0.0000 HC        1 <0>         0.0000
      7 H2          2.0625   -0.7145    0.0000 HC        1 <0>         0.0000
      8 H3          2.0625   -0.7145    0.0000 HC        1 <0>         0.0000
      9 H4          1.2375   -0.7145    0.0000 H1        1 <0>         0.0000
     10 H5          0.8250   -1.4289    0.0000 HO        1 <0>         0.0000
     11 H6          0.8250    0.0000    0.0000 H1        1 <0>         0.0000
     12 H7          0.8250    0.0000    0.0000 H1        1 <0>         0.0000
     13 H8          0.0000    0.0000    0.0000 HO        1 <0>         0.0000
@<TRIPOS>BOND
     1    1    2 1
     2    2    3 1
     3    2    4 1
     4    4    5 1
     5    1    6 1
     6    1    7 1
     7    1    8 1
     8    2    9 1
     9    3   10 1
    10    4   11 1
    11    4   12 1
    12    5   13 1
@<TRIPOS>MOLECULE
*****
   22    22     0     0     0
SMALL
NO_CHARGES

@<TRIPOS>ATOM
      1 C1          2.1434   -0.4125    0.0000 CT        1 <0>         0.0000
      2 C2          1.4289    0.0000    0.0000 CT        1 <0>         0.0000
      3 C3          0.7145   -0.4125    0.0000 CT        1 <0>         0.0000
      4 C4          0.0000    0.0000    0.0000 CT        1 <0>         0.0000
      5 O1         -0.7145   -0.4125    0.0000 OH        1 <0>         0.0000
      6 C5          0.0000    0.8250    0.0000 CT        1 <0>         0.0000
      7 O2         -0.7145    1.2375    0.0000 OH        1 <0>         0.0000
      8 C6          0.7145    1.2375    0.0000 CT        1 <0>         0.0000
      9 O3          0.7145    2.0625    0.0000 OH        1 <0>         0.0000
     10 O4          1.4289    0.8250    0.0000 OS        1 <0>         0.0000
     11 H1          2.1434   -0.4125    0.0000 HC        1 <0>         0.0000
     12 H2          2.1434   -0.4125    0.0000 HC        1 <0>         0.0000
     13 H3          2.1434   -0.4125    0.0000 HC        1 <0>         0.0000
     14 H4          1.4289    0.0000    0.0000 H1        1 <0>         0.0000
     15 H5          0.7145   -0.4125    0.0000 HC        1 <0>         0.0000
     16 H6          0.7145   -0.4125    0.0000 HC        1 <0>         0.0000
     17 H7          0.0000    0.0000    0.0000 H1        1 <0>         0.0000
     18 H8         -0.7145   -0.4125    0.0000 HO        1 <0>         0.0000
     19 H9          0.0000    0.8250    0.0000 H1        1 <0>         0.0000
     20 H10        -0.7145    1.2375    0.0000 HO        1 <0>         0.0000
     21 H11         0.7145    1.2375    0.0000 H2        1 <0>         0.0000
     22 H12         0.7145    2.0625    0.0000 HO        1 <0>         0.0000
@<TRIPOS>BOND
     1    1    2 1
     2    2    3 1
     3    3    4 1
     4    4    5 1
     5    4    6 1
     6    6    7 1
     7    6    8 1
     8    8    9 1
     9    8   10 1
    10    2   10 1
    11    1   11 1
    12    1   12 1
    13    1   13 1
    14    2   14 1
    15    3   15 1
    16    3   16 1
    17    4   17 1
    18    5   18 1
    19    6   19 1
    20    7   20 1
    21    8   21 1
    22    9   22 1
@<TRIPOS>MOLECULE
KMP
   31    33     0     0     0
SMALL
NO_CHARGES

@<TRIPOS>ATOM
      1 C1         -2.4633   -0.7684    0.0000 CA        1 <0>         0.0000
      2 C2         -1.7488   -1.1809    0.0000 CA        1 <0>         0.0000
      3 C3         -1.0344   -0.7684    0.0000 CB        1 <0>         0.0000
      4 C4         -1.0344    0.0566    0.0000 CB        1 <0>         0.0000
      5 C5         -1.7488    0.4691    0.0000 CA        1 <0>         0.0000
      6 C6         -2.4633    0.0566    0.0000 CA        1 <0>         0.0000
      7 C7         -0.3199   -1.1809    0.0000 C         1 <0>         0.0000
      8 C8          0.3946   -0.7684    0.0000 CA        1 <0>         0.0000
      9 C9          0.3946    0.0566    0.0000 CP        1 <0>         0.0000
     10 C10         1.1091    0.4691    0.0000 CP        1 <0>         0.0000
     11 C11         1.1091    1.2941    0.0000 CA        1 <0>         0.0000
     12 C12         1.8235    1.7066    0.0000 CA        1 <0>         0.0000
     13 C13         2.5380    1.2941    0.0000 CA        1 <0>         0.0000
     14 C14         2.5380    0.4691    0.0000 CA        1 <0>         0.0000
     15 C15         1.8235    0.0566    0.0000 CA        1 <0>         0.0000
     16 O1         -0.3199    0.4691    0.0000 OS        1 <0>         0.0000
     17 O2         -0.3199   -2.0059    0.0000 O         1 <0>         0.0000
     18 O3          3.2525    1.7066    0.0000 OH        1 <0>         0.0000
     19 O4          1.1091   -1.1809    0.0000 OH        1 <0>         0.0000
     20 O5         -3.1778    0.4691    0.0000 OH        1 <0>         0.0000
     21 O6         -1.7488   -2.0059    0.0000 OH        1 <0>         0.0000
     22 H1         -2.4633   -0.7684    0.0000 HA        1 <0>         0.0000
     23 H2         -1.7488    0.4691    0.0000 HA        1 <0>         0.0000
     24 H3          1.1091    1.2941    0.0000 HA        1 <0>         0.0000
     25 H4          1.8235    1.7066    0.0000 HA        1 <0>         0.0000
     26 H5          2.5380    0.4691    0.0000 HA        1 <0>         0.0000
     27 H6          1.8235    0.0566    0.0000 HA        1 <0>         0.0000
     28 H7          3.2525    1.7066    0.0000 HO        1 <0>         0.0000
     29 H8          1.1091   -1.1809    0.0000 HO        1 <0>         0.0000
     30 H9         -3.1778    0.4691    0.0000 HO        1 <0>         0.0000
     31 H10        -1.7488   -2.0059    0.0000 HO        1 <0>         0.0000
@<TRIPOS>BOND
     1    1    2 ar
     2    1    6 ar
     3    2    3 ar
     4    2   21 1
     5    3    4 ar
     6    3    7 1
     7    4    5 ar
     8    4   16 1
     9    5    6 ar
    10    6   20 1
    11    7    8 1
    12    7   17 2
    13    8    9 2
    14    8   19 1
    15    9   10 1
    16    9   16 1
    17   10   11 ar
    18   10   15 ar
    19   11   12 ar
    20   12   13 ar
    21   13   14 ar
    22   13   18 1
    23   14   15 ar
    24    1   22 1
    25    5   23 1
    26   11   24 1
    27   12   25 1
    28   14   26 1
    29   15   27 1
    30   18   28 1
    31   19   29 1
    32   20   30 1
    33   21   31 1
@<TRIPOS>MOLECULE
*****
   23    22     0     0     0
SMALL
NO_CHARGES

@<TRIPOS>ATOM
      1 O1          2.9980    2.5559    0.0000 OH        1 <0>         0.0000
      2 C1          3.7125    2.1434    0.0000 C         1 <0>         0.0000
      3 O2          3.7125    1.3184    0.0000 O         1 <0>         0.0000
      4 C2          4.4270    2.5559    0.0000 CT        1 <0>         0.0000
      5 C3          5.1414    2.1434    0.0000 CT        1 <0>         0.0000
      6 C4          5.8559    2.5559    0.0000 CT        1 <0>         0.0000
      7 C5          6.5704    2.1434    0.0000 CT        1 <0>         0.0000
      8 C6          7.2849    2.5559    0.0000 CT        1 <0>         0.0000
      9 C7          7.9993    2.1434    0.0000 C         1 <0>         0.0000
     10 O3          8.7138    2.5559    0.0000 OH        1 <0>         0.0000
     11 O4          7.9993    1.3184    0.0000 O         1 <0>         0.0000
     12 H1          2.9980    2.5559    0.0000 HO        1 <0>         0.0000
     13 H2          4.4270    2.5559    0.0000 HC        1 <0>         0.0000
     14 H3          4.4270    2.5559    0.0000 HC        1 <0>         0.0000
     15 H4          5.1414    2.1434    0.0000 HC        1 <0>         0.0000
     16 H5          5.1414    2.1434    0.0000 HC        1 <0>         0.0000
     17 H6          5.8559    2.5559    0.0000 HC        1 <0>         0.0000
     18 H7          5.8559    2.5559    0.0000 HC        1 <0>         0.0000
     19 H8          6.5704    2.1434    0.0000 HC        1 <0>         0.0000
     20 H9          6.5704    2.1434    0.0000 HC        1 <0>         0.0000
     21 H10         7.2849    2.5559    0.0000 HC        1 <0>         0.0000
     22 H11         7.2849    2.5559    0.0000 HC        1 <0>         0.0000
     23 H12         8.7138    2.5559    0.0000 HO        1 <0>         0.0000
@<TRIPOS>BOND
     1    1    2 1
     2    2    3 2
     3    2    4 1
     4    4    5 1
     5    5    6 1
     6    6    7 1
     7    7    8 1
     8    8    9 1
     9    9   10 1
    10    9   11 2
    11    1   12 1
    12    4   13 1
    13    4   14 1
    14    5   15 1
    15    5   16 1
    16    6   17 1
    17    6   18 1
    18    7   19 1
    19    7   20 1
    20    8   21 1
    21    8   22 1
    22   10   23 1
@<TRIPOS>MOLECULE
*****
   24    25     0     0     0
SMALL
NO_CHARGES

@<TRIPOS>ATOM
      1 O1          1.4289    0.0000    0.0000 O         1 <0>         0.0000
      2 C1          2.1434   -0.4125    0.0000 C         1 <0>         0.0000
      3 C2          2.1434   -1.2375    0.0000 CA        1 <0>         0.0000
      4 C3          2.8579   -1.6500    0.0000 CA        1 <0>         0.0000
      5 C4          2.8579   -2.4750    0.0000 CA        1 <0>         0.0000
      6 C5          2.1434   -2.8875    0.0000 CA        1 <0>         0.0000
      7 C6          1.4289   -2.4750    0.0000 CA        1 <0>         0.0000
      8 C7          1.4289   -1.6500    0.0000 CA        1 <0>         0.0000
      9 C8          2.8579    0.0000    0.0000 CA        1 <0>         0.0000
     10 C9          2.8579    0.8250    0.0000 CA        1 <0>         0.0000
     11 C10         3.5724    1.2375    0.0000 CA        1 <0>         0.0000
     12 C11         4.2868    0.8250    0.0000 CA        1 <0>         0.0000
     13 C12         4.2868    0.0000    0.0000 CA        1 <0>         0.0000
     14 C13         3.5724   -0.4125    0.0000 CA        1 <0>         0.0000
     15 H1          2.8579   -1.6500    0.0000 HA        1 <0>         0.0000
     16 H2          2.8579   -2.4750    0.0000 HA        1 <0>         0.0000
     17 H3          2.1434   -2.8875    0.0000 HA        1 <0>         0.0000
     18 H4          1.4289   -2.4750    0.0000 HA        1 <0>         0.0000
     19 H5          1.4289   -1.6500    0.0000 HA        1 <0>         0.0000
     20 H6          2.8579    0.8250    0.0000 HA        1 <0>         0.0000
     21 H7          3.5724    1.2375    0.0000 HA        1 <0>         0.0000
     22 H8          4.2868    0.8250    0.0000 HA        1 <0>         0.0000
     23 H9          4.2868    0.0000    0.0000 HA        1 <0>         0.0000
     24 H10         3.5724   -0.4125    0.0000 HA        1 <0>         0.0000
@<TRIPOS>BOND
     1    1    2 2
     2    2    3 1
     3    3    4 ar
     4    4    5 ar
     5    5    6 ar
     6    6    7 ar
     7    7    8 ar
     8    3    8 ar
     9    2    9 1
    10    9   10 ar
    11   10   11 ar
    12   11   12 ar
    13   12   13 ar
    14   13   14 ar
    15    9   14 ar
    16    4   15 1
    17    5   16 1
    18    6   17 1
    19    7   18 1
    20    8   19 1
    21   10   20 1
    22   11   21 1
    23   12   22 1
    24   13   23 1
    25   14   24 1
@<TRIPOS>MOLECULE
DHC
   21    21     0     0     0
SMALL
NO_CHARGES

@<TRIPOS>ATOM
      1 C1          3.0952    0.8773    0.0000 C         1 <0>         0.0000
      2 O1          3.0952    1.7023    0.0000 O         1 <0>         0.0000
      3 C2          2.3808    0.4648    0.0000 CM        1 <0>         0.0000
      4 C3          2.3808   -0.3602    0.0000 CM        1 <0>         0.0000
      5 C4          1.6663   -0.7727    0.0000 CA        1 <0>         0.0000
      6 C5          1.6663   -1.5977    0.0000 CA        1 <0>         0.0000
      7 C6          0.9518   -2.0102    0.0000 CA        1 <0>         0.0000
      8 C7          0.2374   -1.5977    0.0000 CA        1 <0>         0.0000
      9 C8          0.2374   -0.7727    0.0000 CA        1 <0>         0.0000
     10 C9          0.9518   -0.3602    0.0000 CA        1 <0>         0.0000
     11 O2         -0.4771   -2.0102    0.0000 OH        1 <0>         0.0000
     12 O3          0.9518   -2.8352    0.0000 OH        1 <0>         0.0000
     13 O4          3.8097    0.4648    0.0000 OH        1 <0>         0.0000
     14 H1          2.3808    0.4648    0.0000 HA        1 <0>         0.0000
     15 H2          2.3808   -0.3602    0.0000 HA        1 <0>         0.0000
     16 H3          1.6663   -1.5977    0.0000 HA        1 <0>         0.0000
     17 H4          0.2374   -0.7727    0.0000 HA        1 <0>         0.0000
     18 H5          0.9518   -0.3602    0.0000 HA        1 <0>         0.0000
     19 H6         -0.4771   -2.0102    0.0000 HO        1 <0>         0.0000
     20 H7          0.9518   -2.8352    0.0000 HO        1 <0>         0.0000
     21 H8          3.8097    0.4648    0.0000 HO        1 <0>         0.0000
@<TRIPOS>BOND
     1    1    2 2
     2    1    3 1
     3    1   13 1
     4    3    4 2
     5    4    5 1
     6    5    6 ar
     7    5   10 ar
     8    6    7 ar
     9    7    8 ar
    10    7   12 1
    11    8    9 ar
    12    8   11 1
    13    9   10 ar
    14    3   14 1
    15    4   15 1
    16    6   16 1
    17    9   17 1
    18   10   18 1
    19   11   19 1
    20   12   20 1
    21   13   21 1
@<TRIPOS>MOLECULE
*****
   23    22     0     0     0
SMALL
NO_CHARGES

@<TRIPOS>ATOM
      1 C1          0.4125   -0.7145    0.0000 CT        1 <0>         0.0000
      2 C2          1.2375   -0.7145    0.0000 CT        1 <0>         0.0000
      3 O1          1.6500   -1.4289    0.0000 OH        1 <0>         0.0000
      4 C3          1.6500    0.0000    0.0000 CT        1 <0>         0.0000
      5 C4          2.4750    0.0000    0.0000 CT        1 <0>         0.0000
      6 C5          2.4750   -0.8250    0.0000 CT        1 <0>         0.0000
      7 O2          2.4750    0.8250    0.0000 OH        1 <0>         0.0000
      8 C6          3.3000    0.0000    0.0000 CT        1 <0>         0.0000
      9 O3          3.7125    0.7145    0.0000 OH        1 <0>         0.0000
     10 H1          0.4125   -0.7145    0.0000 HC        1 <0>         0.0000
     11 H2          0.4125   -0.7145    0.0000 HC        1 <0>         0.0000
     12 H3          0.4125   -0.7145    0.0000 HC        1 <0>         0.0000
     13 H4          1.2375   -0.7145    0.0000 H1        1 <0>         0.0000
     14 H5          1.6500   -1.4289    0.0000 HO        1 <0>         0.0000
     15 H6          1.6500    0.0000    0.0000 HC        1 <0>         0.0000
     16 H7          1.6500    0.0000    0.0000 HC        1 <0>         0.0000
     17 H8          2.4750   -0.8250    0.0000 HC        1 <0>         0.0000
     18 H9          2.4750   -0.8250    0.0000 HC        1 <0>         0.0000
     19 H10         2.4750   -0.8250    0.0000 HC        1 <0>         0.0000
     20 H11         2.4750    0.8250    0.0000 HO        1 <0>         0.0000
     21 H12         3.3000    0.0000    0.0000 H1        1 <0>         0.0000
     22 H13         3.3000    0.0000    0.0000 H1        1 <0>         0.0000
     23 H14         3.7125    0.7145    0.0000 HO        1 <0>         0.0000
@<TRIPOS>BOND
     1    1    2 1
     2    2    3 1
     3    2    4 1
     4    4    5 1
     5    5    6 1
     6    5    7 1
     7    5    8 1
     8    8    9 1
     9    1   10 1
    10    1   11 1
    11    1   12 1
    12    2   13 1
    13    3   14 1
    14    4   15 1
    15    4   16 1
    16    6   17 1
    17    6   18 1
    18    6   19 1
    19    7   20 1
    20    8   21 1
    21    8   22 1
    22    9   23 1
@<TRIPOS>MOLECULE
*****
   22    22     0     0     0
SMALL
NO_CHARGES

@<TRIPOS>ATOM
      1 O1          2.1434    2.0625    0.0000 OH        1 <0>         0.0000
      2 C1          2.1434    1.2375    0.0000 CT        1 <0>         0.0000
      3 C2          1.4289    0.8250    0.0000 CT        1 <0>         0.0000
      4 O2          1.4289    0.0000    0.0000 OS        1 <0>         0.0000
      5 C3          0.7145   -0.4125    0.0000 C         1 <0>         0.0000
      6 O3          0.7145   -1.2375    0.0000 O         1 <0>         0.0000
      7 C4          0.0000    0.0000    0.0000 CT        1 <0>         0.0000
      8 O4         -0.7145   -0.4125    0.0000 OH        1 <0>         0.0000
      9 C5          0.0000    0.8250    0.0000 CT        1 <0>         0.0000
     10 O5         -0.7145    1.2375    0.0000 OH        1 <0>         0.0000
     11 C6          0.7145    1.2375    0.0000 CT        1 <0>         0.0000
     12 O6          0.7145    2.0625    0.0000 OH        1 <0>         0.0000
     13 H1          2.1434    2.0625    0.0000 HO        1 <0>         0.0000
     14 H2          2.1434    1.2375    0.0000 H1        1 <0>         0.0000
     15 H3          2.1434    1.2375    0.0000 H1        1 <0>         0.0000
     16 H4          1.4289    0.8250    0.0000 H1        1 <0>         0.0000
     17 H5          0.0000    0.0000    0.0000 H1        1 <0>         0.0000
     18 H6         -0.7145   -0.4125    0.0000 HO        1 <0>         0.0000
     19 H7          0.0000    0.8250    0.0000 H1        1 <0>         0.0000
     20 H8         -0.7145    1.2375    0.0000 HO        1 <0>         0.0000
     21 H9          0.7145    1.2375    0.0000 H1        1 <0>         0.0000
     22 H10         0.7145    2.0625    0.0000 HO        1 <0>         0.0000
@<TRIPOS>BOND
     1    1    2 1
     2    2    3 1
     3    3    4 1
     4    4    5 1
     5    5    6 2
     6    5    7 1
     7    7    8 1
     8    7    9 1
     9    9   10 1
    10    9   11 1
    11    3   11 1
    12   11   12 1
    13    1   13 1
    14    2   14 1
    15    2   15 1
    16    3   16 1
    17    7   17 1
    18    8   18 1
    19    9   19 1
    20   10   20 1
    21   11   21 1
    22   12   22 1
@<TRIPOS>MOLECULE
ATE
   50    53     0     0     0
SMALL
NO_CHARGES

@<TRIPOS>ATOM
      1 O1          3.2286    0.4743    0.0000 OH        1 <0>         0.0000
      2 C1          2.4165    0.3291    0.0000 CT        1 <0>         0.0000
      3 C2          2.1362   -0.4468    0.0000 CT        1 <0>         0.0000
      4 C3          1.3241   -0.5920    0.0000 CT        1 <0>         0.0000
      5 C4          1.8847    0.9598    0.0000 CT        1 <0>         0.0000
      6 C5          1.0725    0.8146    0.0000 CT        1 <0>         0.0000
      7 C6          0.5407    1.4453    0.0000 CT        1 <0>         0.0000
      8 C7          0.7922    0.0387    0.0000 CT        1 <0>         0.0000
      9 C8          0.5119   -0.7372    0.0000 CT        1 <0>         0.0000
     10 C9         -0.0199   -0.1065    0.0000 CT        1 <0>         0.0000
     11 C10        -0.3002   -0.8824    0.0000 CT        1 <0>         0.0000
     12 C11        -0.5517    0.5242    0.0000 CT        1 <0>         0.0000
     13 C12        -0.2714    1.3001    0.0000 CT        1 <0>         0.0000
     14 C13        -1.3638    0.3790    0.0000 CT        1 <0>         0.0000
     15 C14        -2.0151    0.8853    0.0000 CT        1 <0>         0.0000
     16 C15        -1.6441   -0.3969    0.0000 CT        1 <0>         0.0000
     17 C16        -1.1123   -1.0277    0.0000 CT        1 <0>         0.0000
     18 C17        -2.0040   -1.1393    0.0000 CT        1 <0>         0.0000
     19 C18        -2.4687   -0.3701    0.0000 CM        1 <0>         0.0000
     20 C19        -2.6980    0.4223    0.0000 CM        1 <0>         0.0000
     21 H1          2.7929   -0.1173    0.0000 H1        1 <0>         0.0000
     22 H2          1.2709    1.3638    0.0000 HC        1 <0>         0.0000
     23 H3          0.3565   -0.5529    0.0000 HC        1 <0>         0.0000
     24 H4         -0.9281    0.9706    0.0000 HC        1 <0>         0.0000
     25 H5         -1.2239    0.9459    0.0000 HC        1 <0>         0.0000
     26 H6          3.2286    0.4743    0.0000 HO        1 <0>         0.0000
     27 H7          2.1362   -0.4468    0.0000 HC        1 <0>         0.0000
     28 H8          2.1362   -0.4468    0.0000 HC        1 <0>         0.0000
     29 H9          1.3241   -0.5920    0.0000 HC        1 <0>         0.0000
     30 H10         1.3241   -0.5920    0.0000 HC        1 <0>         0.0000
     31 H11         1.8847    0.9598    0.0000 HC        1 <0>         0.0000
     32 H12         1.8847    0.9598    0.0000 HC        1 <0>         0.0000
     33 H13         0.5407    1.4453    0.0000 HC        1 <0>         0.0000
     34 H14         0.5407    1.4453    0.0000 HC        1 <0>         0.0000
     35 H15         0.5119   -0.7372    0.0000 HC        1 <0>         0.0000
     36 H16         0.5119   -0.7372    0.0000 HC        1 <0>         0.0000
     37 H17         0.5119   -0.7372    0.0000 HC        1 <0>         0.0000
     38 H18        -0.3002   -0.8824    0.0000 HC        1 <0>         0.0000
     39 H19        -0.3002   -0.8824    0.0000 HC        1 <0>         0.0000
     40 H20        -0.2714    1.3001    0.0000 HC        1 <0>         0.0000
     41 H21        -0.2714    1.3001    0.0000 HC        1 <0>         0.0000
     42 H22        -2.0151    0.8853    0.0000 HC        1 <0>         0.0000
     43 H23        -2.0151    0.8853    0.0000 HC        1 <0>         0.0000
     44 H24        -1.1123   -1.0277    0.0000 HC        1 <0>         0.0000
     45 H25        -1.1123   -1.0277    0.0000 HC        1 <0>         0.0000
     46 H26        -2.0040   -1.1393    0.0000 HC        1 <0>         0.0000
     47 H27        -2.0040   -1.1393    0.0000 HC        1 <0>         0.0000
     48 H28        -2.0040   -1.1393    0.0000 HC        1 <0>         0.0000
     49 H29        -2.4687   -0.3701    0.0000 HA        1 <0>         0.0000
     50 H30        -2.6980    0.4223    0.0000 HA        1 <0>         0.0000
@<TRIPOS>BOND
     1    1    2 1
     2    2    3 1
     3    2    5 1
     4    2   21 1
     5    3    4 1
     6    4    8 1
     7    5    6 1
     8    6    7 1
     9    6    8 1
    10    6   22 1
    11    7   13 1
    12    8    9 1
    13    8   10 1
    14   10   11 1
    15   10   12 1
    16   10   23 1
    17   11   17 1
    18   12   13 1
    19   12   14 1
    20   12   24 1
    21   14   15 1
    22   14   16 1
    23   14   25 1
    24   15   20 1
    25   16   17 1
    26   16   18 1
    27   16   19 1
    28   19   20 2
    29    1   26 1
    30    3   27 1
    31    3   28 1
    32    4   29 1
    33    4   30 1
    34    5   31 1
    35    5   32 1
    36    7   33 1
    37    7   34 1
    38    9   35 1
    39    9   36 1
    40    9   37 1
    41   11   38 1
    42   11   39 1
    43   13   40 1
    44   13   41 1
    45   15   42 1
    46   15   43 1
    47   17   44 1
    48   17   45 1
    49   18   46 1
    50   18   47 1
    51   18   48 1
    52   19   49 1
    53   20   50 1
@<TRIPOS>MOLECULE
1892
   91    92     0     0     0
SMALL
NO_CHARGES

@<TRIPOS>ATOM
      1 C1          1.8183    0.3365    0.0000 CT        1 <0>         0.0000
      2 C2          1.4151   -0.4239    0.0000 CT        1 <0>         0.0000
      3 C3          1.9090   -1.0575    0.0000 CT        1 <0>         0.0000
      4 C4          0.4824   -0.5697    0.0000 C         1 <0>         0.0000
      5 O1         -0.1401   -1.3292    0.0000 O         1 <0>         0.0000
      6 C5         -0.1402    0.0617    0.0000 CT        1 <0>         0.0000
      7 C6          0.4641    0.5919    0.0000 CM        1 <0>         0.0000
      8 C7          0.4231    1.3257    0.0000 CM        1 <0>         0.0000
      9 C8          1.1694    1.6494    0.0000 CT        1 <0>         0.0000
     10 C9          1.9212    1.3387    0.0000 CM        1 <0>         0.0000
     11 C10         2.6500    1.7108    0.0000 CM        1 <0>         0.0000
     12 C11         2.6059    2.5311    0.0000 CT        1 <0>         0.0000
     13 C12         3.3384    1.2631    0.0000 CT        1 <0>         0.0000
     14 C13        -0.3484    1.6415    0.0000 C         1 <0>         0.0000
     15 O2          0.2634    2.2071    0.0000 O         1 <0>         0.0000
     16 C14        -1.1116    1.0248    0.0000 CT        1 <0>         0.0000
     17 C15        -1.1086    1.9078    0.0000 CT        1 <0>         0.0000
     18 C16        -0.5560    2.5589    0.0000 CM        1 <0>         0.0000
     19 C17        -0.3025    3.3514    0.0000 CM        1 <0>         0.0000
     20 C18        -1.0291    3.7568    0.0000 CT        1 <0>         0.0000
     21 C19         0.4101    3.7759    0.0000 CT        1 <0>         0.0000
     22 C20        -1.4752    0.0075    0.0000 CT        1 <0>         0.0000
     23 C21        -1.0309   -0.7306    0.0000 CT        1 <0>         0.0000
     24 C22        -1.4767   -1.4143    0.0000 CT        1 <0>         0.0000
     25 C23        -2.2213   -1.0804    0.0000 CM        1 <0>         0.0000
     26 C24        -2.8093   -1.6571    0.0000 CM        1 <0>         0.0000
     27 C25        -2.5978   -2.4545    0.0000 CT        1 <0>         0.0000
     28 C26        -3.5933   -1.4007    0.0000 CT        1 <0>         0.0000
     29 C27        -0.1435   -0.7105    0.0000 CT        1 <0>         0.0000
     30 C28         0.7954   -1.0542    0.0000 CT        1 <0>         0.0000
     31 C29         0.4291   -1.5519    0.0000 CT        1 <0>         0.0000
     32 C30         0.1714   -2.3528    0.0000 CT        1 <0>         0.0000
     33 C31         0.7944   -2.8831    0.0000 CM        1 <0>         0.0000
     34 C32         0.4045   -3.6033    0.0000 CM        1 <0>         0.0000
     35 C33        -0.4123   -3.6908    0.0000 CT        1 <0>         0.0000
     36 C34         0.9281   -4.2369    0.0000 CT        1 <0>         0.0000
     37 C35        -1.0148    0.4798    0.0000 C         1 <0>         0.0000
     38 O3         -2.0000    0.4791    0.0000 O         1 <0>         0.0000
     39 O4          1.1184    0.2023    0.0000 OH        1 <0>         0.0000
     40 H1          1.8183    0.3365    0.0000 HC        1 <0>         0.0000
     41 H2          1.8183    0.3365    0.0000 HC        1 <0>         0.0000
     42 H3          1.8183    0.3365    0.0000 HC        1 <0>         0.0000
     43 H4          1.4151   -0.4239    0.0000 HC        1 <0>         0.0000
     44 H5          1.9090   -1.0575    0.0000 HC        1 <0>         0.0000
     45 H6          1.9090   -1.0575    0.0000 HC        1 <0>         0.0000
     46 H7          1.9090   -1.0575    0.0000 HC        1 <0>         0.0000
     47 H8          1.1694    1.6494    0.0000 HC        1 <0>         0.0000
     48 H9          1.1694    1.6494    0.0000 HC        1 <0>         0.0000
     49 H10         1.9212    1.3387    0.0000 HA        1 <0>         0.0000
     50 H11         2.6059    2.5311    0.0000 HC        1 <0>         0.0000
     51 H12         2.6059    2.5311    0.0000 HC        1 <0>         0.0000
     52 H13         2.6059    2.5311    0.0000 HC        1 <0>         0.0000
     53 H14         3.3384    1.2631    0.0000 HC        1 <0>         0.0000
     54 H15         3.3384    1.2631    0.0000 HC        1 <0>         0.0000
     55 H16         3.3384    1.2631    0.0000 HC        1 <0>         0.0000
     56 H17        -1.1086    1.9078    0.0000 HC        1 <0>         0.0000
     57 H18        -1.1086    1.9078    0.0000 HC        1 <0>         0.0000
     58 H19        -0.5560    2.5589    0.0000 HA        1 <0>         0.0000
     59 H20        -1.0291    3.7568    0.0000 HC        1 <0>         0.0000
     60 H21        -1.0291    3.7568    0.0000 HC        1 <0>         0.0000
     61 H22        -1.0291    3.7568    0.0000 HC        1 <0>         0.0000
     62 H23         0.4101    3.7759    0.0000 HC        1 <0>         0.0000
     63 H24         0.4101    3.7759    0.0000 HC        1 <0>         0.0000
     64 H25         0.4101    3.7759    0.0000 HC        1 <0>         0.0000
     65 H26        -1.4752    0.0075    0.0000 HC        1 <0>         0.0000
     66 H27        -1.4752    0.0075    0.0000 HC        1 <0>         0.0000
     67 H28        -1.0309   -0.7306    0.0000 HC        1 <0>         0.0000
     68 H29        -1.4767   -1.4143    0.0000 HC        1 <0>         0.0000
     69 H30        -1.4767   -1.4143    0.0000 HC        1 <0>         0.0000
     70 H31        -2.2213   -1.0804    0.0000 HA        1 <0>         0.0000
     71 H32        -2.5978   -2.4545    0.0000 HC        1 <0>         0.0000
     72 H33        -2.5978   -2.4545    0.0000 HC        1 <0>         0.0000
     73 H34        -2.5978   -2.4545    0.0000 HC        1 <0>         0.0000
     74 H35        -3.5933   -1.4007    0.0000 HC        1 <0>         0.0000
     75 H36        -3.5933   -1.4007    0.0000 HC        1 <0>         0.0000
     76 H37        -3.5933   -1.4007    0.0000 HC        1 <0>         0.0000
     77 H38         0.7954   -1.0542    0.0000 HC        1 <0>         0.0000
     78 H39         0.7954   -1.0542    0.0000 HC        1 <0>         0.0000
     79 H40         0.7954   -1.0542    0.0000 HC        1 <0>         0.0000
     80 H41         0.4291   -1.5519    0.0000 HC        1 <0>         0.0000
     81 H42         0.4291   -1.5519    0.0000 HC        1 <0>         0.0000
     82 H43         0.1714   -2.3528    0.0000 HC        1 <0>         0.0000
     83 H44         0.1714   -2.3528    0.0000 HC        1 <0>         0.0000
     84 H45         0.7944   -2.8831    0.0000 HA        1 <0>         0.0000
     85 H46        -0.4123   -3.6908    0.0000 HC        1 <0>         0.0000
     86 H47        -0.4123   -3.6908    0.0000 HC        1 <0>         0.0000
     87 H48        -0.4123   -3.6908    0.0000 HC        1 <0>         0.0000
     88 H49         0.9281   -4.2369    0.0000 HC        1 <0>         0.0000
     89 H50         0.9281   -4.2369    0.0000 HC        1 <0>         0.0000
     90 H51         0.9281   -4.2369    0.0000 HC        1 <0>         0.0000
     91 H52         1.1184    0.2023    0.0000 HO        1 <0>         0.0000
@<TRIPOS>BOND
     1    1    2 1
     2    2    3 1
     3    2    4 1
     4    4    5 2
     5    4    6 1
     6    6    7 1
     7    7    8 2
     8    8    9 1
     9    9   10 1
    10   10   11 2
    11   11   12 1
    12   11   13 1
    13    8   14 1
    14   14   15 2
    15   14   16 1
    16   16   17 1
    17   17   18 1
    18   18   19 2
    19   19   20 1
    20   19   21 1
    21   16   22 1
    22   22   23 1
    23   23   24 1
    24   24   25 1
    25   25   26 2
    26   26   27 1
    27   26   28 1
    28   23   29 1
    29    6   29 1
    30   29   30 1
    31   29   31 1
    32   31   32 1
    33   32   33 1
    34   33   34 2
    35   34   35 1
    36   34   36 1
    37   16   37 1
    38    6   37 1
    39   37   38 2
    40    7   39 1
    41    1   40 1
    42    1   41 1
    43    1   42 1
    44    2   43 1
    45    3   44 1
    46    3   45 1
    47    3   46 1
    48    9   47 1
    49    9   48 1
    50   10   49 1
    51   12   50 1
    52   12   51 1
    53   12   52 1
    54   13   53 1
    55   13   54 1
    56   13   55 1
    57   17   56 1
    58   17   57 1
    59   18   58 1
    60   20   59 1
    61   20   60 1
    62   20   61 1
    63   21   62 1
    64   21   63 1
    65   21   64 1
    66   22   65 1
    67   22   66 1
    68   23   67 1
    69   24   68 1
    70   24   69 1
    71   25   70 1
    72   27   71 1
    73   27   72 1
    74   27   73 1
    75   28   74 1
    76   28   75 1
    77   28   76 1
    78   30   77 1
    79   30   78 1
    80   30   79 1
    81   31   80 1
    82   31   81 1
    83   32   82 1
    84   32   83 1
    85   33   84 1
    86   35   85 1
    87   35   86 1
    88   35   87 1
    89   36   88 1
    90   36   89 1
    91   36   90 1
    92   39   91 1
@<TRIPOS>MOLECULE
*****
   22    21     0     0     0
SMALL
NO_CHARGES

@<TRIPOS>ATOM
      1 O1          1.7605    1.8414    0.0000 OH        1 <0>         0.0000
      2 C1          2.4750    1.4289    0.0000 CT        1 <0>         0.0000
      3 C2          3.1895    1.8414    0.0000 CT        1 <0>         0.0000
      4 O2          3.1895    2.6664    0.0000 OH        1 <0>         0.0000
      5 C3          3.9039    1.4289    0.0000 CT        1 <0>         0.0000
      6 O3          3.9039    0.6039    0.0000 OH        1 <0>         0.0000
      7 C4          4.6184    1.8414    0.0000 CT        1 <0>         0.0000
      8 O4          4.6184    2.6664    0.0000 OH        1 <0>         0.0000
      9 C5          5.3329    1.4289    0.0000 CT        1 <0>         0.0000
     10 O5          6.0474    1.8414    0.0000 OH        1 <0>         0.0000
     11 H1          1.7605    1.8414    0.0000 HO        1 <0>         0.0000
     12 H2          2.4750    1.4289    0.0000 H1        1 <0>         0.0000
     13 H3          2.4750    1.4289    0.0000 H1        1 <0>         0.0000
     14 H4          3.1895    1.8414    0.0000 H1        1 <0>         0.0000
     15 H5          3.1895    2.6664    0.0000 HO        1 <0>         0.0000
     16 H6          3.9039    1.4289    0.0000 H1        1 <0>         0.0000
     17 H7          3.9039    0.6039    0.0000 HO        1 <0>         0.0000
     18 H8          4.6184    1.8414    0.0000 H1        1 <0>         0.0000
     19 H9          4.6184    2.6664    0.0000 HO        1 <0>         0.0000
     20 H10         5.3329    1.4289    0.0000 H1        1 <0>         0.0000
     21 H11         5.3329    1.4289    0.0000 H1        1 <0>         0.0000
     22 H12         6.0474    1.8414    0.0000 HO        1 <0>         0.0000
@<TRIPOS>BOND
     1    1    2 1
     2    2    3 1
     3    3    4 1
     4    3    5 1
     5    5    6 1
     6    5    7 1
     7    7    8 1
     8    7    9 1
     9    9   10 1
    10    1   11 1
    11    2   12 1
    12    2   13 1
    13    3   14 1
    14    4   15 1
    15    5   16 1
    16    6   17 1
    17    7   18 1
    18    8   19 1
    19    9   20 1
    20    9   21 1
    21   10   22 1
@<TRIPOS>MOLECULE
*****
  126   132     0     0     0
SMALL
NO_CHARGES

@<TRIPOS>ATOM
      1 O1          3.6298   -1.8536    0.0000 OH        1 <0>         0.0000
      2 C1          2.9735   -2.3394    0.0000 CT        1 <0>         0.0000
      3 C2          2.2246   -2.0140    0.0000 CT        1 <0>         0.0000
      4 O2          2.1426   -1.1931    0.0000 OS        1 <0>         0.0000
      5 C3          1.3994   -0.8351    0.0000 CT        1 <0>         0.0000
      6 O3          1.8211   -0.0853    0.0000 OS        1 <0>         0.0000
      7 C4          2.3776    0.5868    0.0000 CT        1 <0>         0.0000
      8 C5          2.3179    1.4285    0.0000 CT        1 <0>         0.0000
      9 C6          1.5752    1.7679    0.0000 CT        1 <0>         0.0000
     10 O4          1.4979    2.5809    0.0000 OH        1 <0>         0.0000
     11 O5          2.9732    1.9190    0.0000 OS        1 <0>         0.0000
     12 C7          3.7576    1.5684    0.0000 CT        1 <0>         0.0000
     13 O6          4.6178    1.5780    0.0000 OS        1 <0>         0.0000
     14 C8          5.4781    1.4321    0.0000 CT        1 <0>         0.0000
     15 C9          6.1772    1.9046    0.0000 CT        1 <0>         0.0000
     16 C10         6.0998    2.7175    0.0000 CT        1 <0>         0.0000
     17 O7          6.7652    3.1910    0.0000 OH        1 <0>         0.0000
     18 O8          6.9297    1.5824    0.0000 OS        1 <0>         0.0000
     19 C11         7.0182    0.7278    0.0000 CT        1 <0>         0.0000
     20 O9          7.4566   -0.0124    0.0000 OS        1 <0>         0.0000
     21 C12         7.7605   -0.8303    0.0000 CT        1 <0>         0.0000
     22 C13         7.0952   -1.3374    0.0000 CT        1 <0>         0.0000
     23 C14         6.3463   -1.0120    0.0000 CT        1 <0>         0.0000
     24 O10         5.6901   -1.4978    0.0000 OH        1 <0>         0.0000
     25 O11         7.1773   -2.1583    0.0000 OS        1 <0>         0.0000
     26 C15         7.9205   -2.5163    0.0000 CT        1 <0>         0.0000
     27 O12         7.4988   -3.2660    0.0000 OS        1 <0>         0.0000
     28 C16         6.9423   -3.9381    0.0000 CT        1 <0>         0.0000
     29 C17         6.1705   -3.6156    0.0000 CT        1 <0>         0.0000
     30 C18         6.0779   -2.8042    0.0000 CT        1 <0>         0.0000
     31 O13         5.3290   -2.4788    0.0000 OH        1 <0>         0.0000
     32 O14         5.5007   -4.0971    0.0000 OS        1 <0>         0.0000
     33 C19         5.5623   -4.9197    0.0000 CT        1 <0>         0.0000
     34 O15         4.7021   -4.9293    0.0000 OS        1 <0>         0.0000
     35 C20         3.8417   -4.7835    0.0000 CT        1 <0>         0.0000
     36 C21         3.1427   -5.2560    0.0000 CT        1 <0>         0.0000
     37 C22         3.2200   -6.0689    0.0000 CT        1 <0>         0.0000
     38 O16         2.5546   -6.5424    0.0000 OH        1 <0>         0.0000
     39 O17         2.3902   -4.9338    0.0000 OS        1 <0>         0.0000
     40 C23         2.3016   -4.0792    0.0000 CT        1 <0>         0.0000
     41 O18         1.8633   -3.3390    0.0000 OS        1 <0>         0.0000
     42 C24         1.5594   -2.5211    0.0000 CT        1 <0>         0.0000
     43 C25         0.8006   -2.1519    0.0000 CT        1 <0>         0.0000
     44 O19         0.1353   -2.6253    0.0000 OH        1 <0>         0.0000
     45 C26         0.7035   -1.3391    0.0000 CT        1 <0>         0.0000
     46 O20        -0.0445   -1.0117    0.0000 OH        1 <0>         0.0000
     47 C27         2.9833   -3.6145    0.0000 CT        1 <0>         0.0000
     48 O21         2.9122   -2.8010    0.0000 OH        1 <0>         0.0000
     49 C28         3.7352   -3.9539    0.0000 CT        1 <0>         0.0000
     50 O22         4.3916   -3.4680    0.0000 OH        1 <0>         0.0000
     51 C29         6.3466   -5.2703    0.0000 CT        1 <0>         0.0000
     52 O23         6.4371   -6.0819    0.0000 OH        1 <0>         0.0000
     53 C30         7.0020   -4.7799    0.0000 CT        1 <0>         0.0000
     54 O24         7.7446   -5.1193    0.0000 OH        1 <0>         0.0000
     55 C31         8.6163   -2.0123    0.0000 CT        1 <0>         0.0000
     56 O25         9.3644   -2.3396    0.0000 OH        1 <0>         0.0000
     57 C32         8.5192   -1.1995    0.0000 CT        1 <0>         0.0000
     58 O26         9.1846   -0.7261    0.0000 OH        1 <0>         0.0000
     59 C33         6.3366    0.2632    0.0000 CT        1 <0>         0.0000
     60 O27         6.4076   -0.5503    0.0000 OH        1 <0>         0.0000
     61 C34         5.5846    0.6025    0.0000 CT        1 <0>         0.0000
     62 O28         4.9283    0.1166    0.0000 OH        1 <0>         0.0000
     63 C35         3.8192    0.7457    0.0000 CT        1 <0>         0.0000
     64 O29         4.5592    0.4006    0.0000 OH        1 <0>         0.0000
     65 C36         3.1493    0.2642    0.0000 CT        1 <0>         0.0000
     66 O30         3.2419   -0.5471    0.0000 OH        1 <0>         0.0000
     67 H1          3.6298   -1.8536    0.0000 HO        1 <0>         0.0000
     68 H2          2.9735   -2.3394    0.0000 H1        1 <0>         0.0000
     69 H3          2.9735   -2.3394    0.0000 H1        1 <0>         0.0000
     70 H4          2.2246   -2.0140    0.0000 H1        1 <0>         0.0000
     71 H5          1.3994   -0.8351    0.0000 H2        1 <0>         0.0000
     72 H6          2.3776    0.5868    0.0000 H1        1 <0>         0.0000
     73 H7          2.3179    1.4285    0.0000 H1        1 <0>         0.0000
     74 H8          1.5752    1.7679    0.0000 H1        1 <0>         0.0000
     75 H9          1.5752    1.7679    0.0000 H1        1 <0>         0.0000
     76 H10         1.4979    2.5809    0.0000 HO        1 <0>         0.0000
     77 H11         3.7576    1.5684    0.0000 H2        1 <0>         0.0000
     78 H12         5.4781    1.4321    0.0000 H1        1 <0>         0.0000
     79 H13         6.1772    1.9046    0.0000 H1        1 <0>         0.0000
     80 H14         6.0998    2.7175    0.0000 H1        1 <0>         0.0000
     81 H15         6.0998    2.7175    0.0000 H1        1 <0>         0.0000
     82 H16         6.7652    3.1910    0.0000 HO        1 <0>         0.0000
     83 H17         7.0182    0.7278    0.0000 H2        1 <0>         0.0000
     84 H18         7.7605   -0.8303    0.0000 H1        1 <0>         0.0000
     85 H19         7.0952   -1.3374    0.0000 H1        1 <0>         0.0000
     86 H20         6.3463   -1.0120    0.0000 H1        1 <0>         0.0000
     87 H21         6.3463   -1.0120    0.0000 H1        1 <0>         0.0000
     88 H22         5.6901   -1.4978    0.0000 HO        1 <0>         0.0000
     89 H23         7.9205   -2.5163    0.0000 H2        1 <0>         0.0000
     90 H24         6.9423   -3.9381    0.0000 H1        1 <0>         0.0000
     91 H25         6.1705   -3.6156    0.0000 H1        1 <0>         0.0000
     92 H26         6.0779   -2.8042    0.0000 H1        1 <0>         0.0000
     93 H27         6.0779   -2.8042    0.0000 H1        1 <0>         0.0000
     94 H28         5.3290   -2.4788    0.0000 HO        1 <0>         0.0000
     95 H29         5.5623   -4.9197    0.0000 H2        1 <0>         0.0000
     96 H30         3.8417   -4.7835    0.0000 H1        1 <0>         0.0000
     97 H31         3.1427   -5.2560    0.0000 H1        1 <0>         0.0000
     98 H32         3.2200   -6.0689    0.0000 H1        1 <0>         0.0000
     99 H33         3.2200   -6.0689    0.0000 H1        1 <0>         0.0000
    100 H34         2.5546   -6.5424    0.0000 HO        1 <0>         0.0000
    101 H35         2.3016   -4.0792    0.0000 H2        1 <0>         0.0000
    102 H36         1.5594   -2.5211    0.0000 H1        1 <0>         0.0000
    103 H37         0.8006   -2.1519    0.0000 H1        1 <0>         0.0000
    104 H38         0.1353   -2.6253    0.0000 HO        1 <0>         0.0000
    105 H39         0.7035   -1.3391    0.0000 H1        1 <0>         0.0000
    106 H40        -0.0445   -1.0117    0.0000 HO        1 <0>         0.0000
    107 H41         2.9833   -3.6145    0.0000 H1        1 <0>         0.0000
    108 H42         2.9122   -2.8010    0.0000 HO        1 <0>         0.0000
    109 H43         3.7352   -3.9539    0.0000 H1        1 <0>         0.0000
    110 H44         4.3916   -3.4680    0.0000 HO        1 <0>         0.0000
    111 H45         6.3466   -5.2703    0.0000 H1        1 <0>         0.0000
    112 H46         6.4371   -6.0819    0.0000 HO        1 <0>         0.0000
    113 H47         7.0020   -4.7799    0.0000 H1        1 <0>         0.0000
    114 H48         7.7446   -5.1193    0.0000 HO        1 <0>         0.0000
    115 H49         8.6163   -2.0123    0.0000 H1        1 <0>         0.0000
    116 H50         9.3644   -2.3396    0.0000 HO        1 <0>         0.0000
    117 H51         8.5192   -1.1995    0.0000 H1        1 <0>         0.0000
    118 H52         9.1846   -0.7261    0.0000 HO        1 <0>         0.0000
    119 H53         6.3366    0.2632    0.0000 H1        1 <0>         0.0000
    120 H54         6.4076   -0.5503    0.0000 HO        1 <0>         0.0000
    121 H55         5.5846    0.6025    0.0000 H1        1 <0>         0.0000
    122 H56         4.9283    0.1166    0.0000 HO        1 <0>         0.0000
    123 H57         3.8192    0.7457    0.0000 H1        1 <0>         0.0000
    124 H58         4.5592    0.4006    0.0000 HO        1 <0>         0.0000
    125 H59         3.1493    0.2642    0.0000 H1        1 <0>         0.0000
    126 H60         3.2419   -0.5471    0.0000 HO        1 <0>         0.0000
@<TRIPOS>BOND
     1    1    2 1
     2    2    3 1
     3    3    4 1
     4    4    5 1
     5    5    6 1
     6    6    7 1
     7    7    8 1
     8    8    9 1
     9    9   10 1
    10    8   11 1
    11   11   12 1
    12   12   13 1
    13   13   14 1
    14   14   15 1
    15   15   16 1
    16   16   17 1
    17   15   18 1
    18   18   19 1
    19   19   20 1
    20   20   21 1
    21   21   22 1
    22   22   23 1
    23   23   24 1
    24   22   25 1
    25   25   26 1
    26   26   27 1
    27   27   28 1
    28   28   29 1
    29   29   30 1
    30   30   31 1
    31   29   32 1
    32   32   33 1
    33   33   34 1
    34   34   35 1
    35   35   36 1
    36   36   37 1
    37   37   38 1
    38   36   39 1
    39   39   40 1
    40   40   41 1
    41   41   42 1
    42    3   42 1
    43   42   43 1
    44   43   44 1
    45   43   45 1
    46    5   45 1
    47   45   46 1
    48   40   47 1
    49   47   48 1
    50   47   49 1
    51   35   49 1
    52   49   50 1
    53   33   51 1
    54   51   52 1
    55   51   53 1
    56   28   53 1
    57   53   54 1
    58   26   55 1
    59   55   56 1
    60   55   57 1
    61   21   57 1
    62   57   58 1
    63   19   59 1
    64   59   60 1
    65   59   61 1
    66   14   61 1
    67   61   62 1
    68   12   63 1
    69   63   64 1
    70   63   65 1
    71    7   65 1
    72   65   66 1
    73    1   67 1
    74    2   68 1
    75    2   69 1
    76    3   70 1
    77    5   71 1
    78    7   72 1
    79    8   73 1
    80    9   74 1
    81    9   75 1
    82   10   76 1
    83   12   77 1
    84   14   78 1
    85   15   79 1
    86   16   80 1
    87   16   81 1
    88   17   82 1
    89   19   83 1
    90   21   84 1
    91   22   85 1
    92   23   86 1
    93   23   87 1
    94   24   88 1
    95   26   89 1
    96   28   90 1
    97   29   91 1
    98   30   92 1
    99   30   93 1
   100   31   94 1
   101   33   95 1
   102   35   96 1
   103   36   97 1
   104   37   98 1
   105   37   99 1
   106   38  100 1
   107   40  101 1
   108   42  102 1
   109   43  103 1
   110   44  104 1
   111   45  105 1
   112   46  106 1
   113   47  107 1
   114   48  108 1
   115   49  109 1
   116   50  110 1
   117   51  111 1
   118   52  112 1
   119   53  113 1
   120   54  114 1
   121   55  115 1
   122   56  116 1
   123   57  117 1
   124   58  118 1
   125   59  119 1
   126   60  120 1
   127   61  121 1
   128   62  122 1
   129   63  123 1
   130   64  124 1
   131   65  125 1
   132   66  126 1
@<TRIPOS>MOLECULE
*****
   24    23     0     0     0
SMALL
NO_CHARGES

@<TRIPOS>ATOM
      1 O1          1.0461    1.4289    0.0000 OH        1 <0>         0.0000
      2 C1          1.7605    1.8414    0.0000 CT        1 <0>         0.0000
      3 C2          2.4750    1.4289    0.0000 CT        1 <0>         0.0000
      4 O2          2.4750    0.6039    0.0000 OH        1 <0>         0.0000
      5 C3          3.1895    1.8414    0.0000 CT        1 <0>         0.0000
      6 O3          3.1895    2.6664    0.0000 OH        1 <0>         0.0000
      7 C4          3.9039    1.4289    0.0000 CT        1 <0>         0.0000
      8 O4          3.9039    0.6039    0.0000 OH        1 <0>         0.0000
      9 C5          4.6184    1.8414    0.0000 CT        1 <0>         0.0000
     10 O5          4.6184    2.6664    0.0000 OH        1 <0>         0.0000
     11 C6          5.3329    1.4289    0.0000 C         1 <0>         0.0000
     12 O6          6.0474    1.8414    0.0000 O         1 <0>         0.0000
     13 H1          1.0461    1.4289    0.0000 HO        1 <0>         0.0000
     14 H2          1.7605    1.8414    0.0000 H1        1 <0>         0.0000
     15 H3          1.7605    1.8414    0.0000 H1        1 <0>         0.0000
     16 H4          2.4750    1.4289    0.0000 H1        1 <0>         0.0000
     17 H5          2.4750    0.6039    0.0000 HO        1 <0>         0.0000
     18 H6          3.1895    1.8414    0.0000 H1        1 <0>         0.0000
     19 H7          3.1895    2.6664    0.0000 HO        1 <0>         0.0000
     20 H8          3.9039    1.4289    0.0000 H1        1 <0>         0.0000
     21 H9          3.9039    0.6039    0.0000 HO        1 <0>         0.0000
     22 H10         4.6184    1.8414    0.0000 H1        1 <0>         0.0000
     23 H11         4.6184    2.6664    0.0000 HO        1 <0>         0.0000
     24 H12         5.3329    1.4289    0.0000 H4        1 <0>         0.0000
@<TRIPOS>BOND
     1    1    2 1
     2    2    3 1
     3    3    4 1
     4    3    5 1
     5    5    6 1
     6    5    7 1
     7    7    8 1
     8    7    9 1
     9    9   10 1
    10    9   11 1
    11   11   12 2
    12    1   13 1
    13    2   14 1
    14    2   15 1
    15    3   16 1
    16    4   17 1
    17    5   18 1
    18    6   19 1
    19    7   20 1
    20    8   21 1
    21    9   22 1
    22   10   23 1
    23   11   24 1
@<TRIPOS>MOLECULE
*****
   16    15     0     0     0
SMALL
NO_CHARGES

@<TRIPOS>ATOM
      1 C1         -0.1914    0.7145    0.0000 CT        1 <0>         0.0000
      2 C2          0.5230    1.1270    0.0000 CT        1 <0>         0.0000
      3 C3          1.2375    0.7145    0.0000 CT        1 <0>         0.0000
      4 C4          1.9520    1.1270    0.0000 CT        1 <0>         0.0000
      5 C5          2.6664    0.7145    0.0000 C         1 <0>         0.0000
      6 O1          3.3809    1.1270    0.0000 O         1 <0>         0.0000
      7 H1         -0.1914    0.7145    0.0000 HC        1 <0>         0.0000
      8 H2         -0.1914    0.7145    0.0000 HC        1 <0>         0.0000
      9 H3         -0.1914    0.7145    0.0000 HC        1 <0>         0.0000
     10 H4          0.5230    1.1270    0.0000 HC        1 <0>         0.0000
     11 H5          0.5230    1.1270    0.0000 HC        1 <0>         0.0000
     12 H6          1.2375    0.7145    0.0000 HC        1 <0>         0.0000
     13 H7          1.2375    0.7145    0.0000 HC        1 <0>         0.0000
     14 H8          1.9520    1.1270    0.0000 HC        1 <0>         0.0000
     15 H9          1.9520    1.1270    0.0000 HC        1 <0>         0.0000
     16 H10         2.6664    0.7145    0.0000 H4        1 <0>         0.0000
@<TRIPOS>BOND
     1    1    2 1
     2    2    3 1
     3    3    4 1
     4    4    5 1
     5    5    6 2
     6    1    7 1
     7    1    8 1
     8    1    9 1
     9    2   10 1
    10    2   11 1
    11    3   12 1
    12    3   13 1
    13    4   14 1
    14    4   15 1
    15    5   16 1
@<TRIPOS>MOLECULE
DQN
   24    24     0     0     0
SMALL
NO_CHARGES

@<TRIPOS>ATOM
      1 C1          0.7145    0.4123    0.0000 C         1 <0>         0.0000
      2 O1          1.4290    0.8248    0.0000 O         1 <0>         0.0000
      3 C2          0.7145   -0.4127    0.0000 CA        1 <0>         0.0000
      4 C3          1.4290   -0.8252    0.0000 CT        1 <0>         0.0000
      5 C4          0.0000   -0.8252    0.0000 CA        1 <0>         0.0000
      6 C5          0.0000   -1.6502    0.0000 CT        1 <0>         0.0000
      7 C6         -0.7144   -0.4127    0.0000 C         1 <0>         0.0000
      8 O2         -1.4289   -0.8252    0.0000 O         1 <0>         0.0000
      9 C7         -0.7144    0.4123    0.0000 CA        1 <0>         0.0000
     10 C8         -1.4289    0.8248    0.0000 CT        1 <0>         0.0000
     11 C9          0.0000    0.8248    0.0000 CA        1 <0>         0.0000
     12 C10         0.0000    1.6498    0.0000 CT        1 <0>         0.0000
     13 H1          1.4290   -0.8252    0.0000 HC        1 <0>         0.0000
     14 H2          1.4290   -0.8252    0.0000 HC        1 <0>         0.0000
     15 H3          1.4290   -0.8252    0.0000 HC        1 <0>         0.0000
     16 H4          0.0000   -1.6502    0.0000 HC        1 <0>         0.0000
     17 H5          0.0000   -1.6502    0.0000 HC        1 <0>         0.0000
     18 H6          0.0000   -1.6502    0.0000 HC        1 <0>         0.0000
     19 H7         -1.4289    0.8248    0.0000 HC        1 <0>         0.0000
     20 H8         -1.4289    0.8248    0.0000 HC        1 <0>         0.0000
     21 H9         -1.4289    0.8248    0.0000 HC        1 <0>         0.0000
     22 H10         0.0000    1.6498    0.0000 HC        1 <0>         0.0000
     23 H11         0.0000    1.6498    0.0000 HC        1 <0>         0.0000
     24 H12         0.0000    1.6498    0.0000 HC        1 <0>         0.0000
@<TRIPOS>BOND
     1    1    2 2
     2    1    3 1
     3    1   11 1
     4    3    4 1
     5    3    5 2
     6    5    6 1
     7    5    7 1
     8    7    8 2
     9    7    9 1
    10    9   10 1
    11    9   11 2
    12   11   12 1
    13    4   13 1
    14    4   14 1
    15    4   15 1
    16    6   16 1
    17    6   17 1
    18    6   18 1
    19   10   19 1
    20   10   20 1
    21   10   21 1
    22   12   22 1
    23   12   23 1
    24   12   24 1
@<TRIPOS>MOLECULE
*****
   21    20     0     0     0
SMALL
NO_CHARGES

@<TRIPOS>ATOM
      1 C1          1.6500    0.0000    0.0000 CT        1 <0>         0.0000
      2 C2          1.2375    0.7145    0.0000 CT        1 <0>         0.0000
      3 C3          0.8250    1.4289    0.0000 CT        1 <0>         0.0000
      4 C4          0.5230    0.3020    0.0000 CT        1 <0>         0.0000
      5 O1         -0.1914    0.7145    0.0000 OH        1 <0>         0.0000
      6 C5          1.9520    1.1270    0.0000 CT        1 <0>         0.0000
      7 O2          1.9520    1.9520    0.0000 OH        1 <0>         0.0000
      8 C6          2.6664    0.7145    0.0000 C         1 <0>         0.0000
      9 O3          3.3809    1.1270    0.0000 O2        1 <0>         0.0000
     10 O4          2.6664   -0.1105    0.0000 O2        1 <0>         0.0000
     11 H1          1.6500    0.0000    0.0000 HC        1 <0>         0.0000
     12 H2          1.6500    0.0000    0.0000 HC        1 <0>         0.0000
     13 H3          1.6500    0.0000    0.0000 HC        1 <0>         0.0000
     14 H4          0.8250    1.4289    0.0000 HC        1 <0>         0.0000
     15 H5          0.8250    1.4289    0.0000 HC        1 <0>         0.0000
     16 H6          0.8250    1.4289    0.0000 HC        1 <0>         0.0000
     17 H7          0.5230    0.3020    0.0000 H1        1 <0>         0.0000
     18 H8          0.5230    0.3020    0.0000 H1        1 <0>         0.0000
     19 H9         -0.1914    0.7145    0.0000 HO        1 <0>         0.0000
     20 H10         1.9520    1.1270    0.0000 H1        1 <0>         0.0000
     21 H11         1.9520    1.9520    0.0000 HO        1 <0>         0.0000
@<TRIPOS>BOND
     1    1    2 1
     2    2    3 1
     3    2    4 1
     4    4    5 1
     5    2    6 1
     6    6    7 1
     7    6    8 1
     8    8    9 1
     9    8   10 2
    10    1   11 1
    11    1   12 1
    12    1   13 1
    13    3   14 1
    14    3   15 1
    15    3   16 1
    16    4   17 1
    17    4   18 1
    18    5   19 1
    19    6   20 1
    20    7   21 1
@<TRIPOS>MOLECULE
*****
   20    20     0     0     0
SMALL
NO_CHARGES

@<TRIPOS>ATOM
      1 O1          2.1913    1.6913    0.0000 OH        1 <0>         0.0000
      2 C1          2.0198    0.8843    0.0000 CT        1 <0>         0.0000
      3 C2          1.2352    0.6294    0.0000 CT        1 <0>         0.0000
      4 O2          0.9803   -0.1553    0.0000 OS        1 <0>         0.0000
      5 C3          0.1553   -0.1553    0.0000 CT        1 <0>         0.0000
      6 O3         -0.3297   -0.8227    0.0000 OH        1 <0>         0.0000
      7 C4         -0.0997    0.6294    0.0000 CT        1 <0>         0.0000
      8 O4         -0.8843    0.8843    0.0000 OH        1 <0>         0.0000
      9 C5          0.5678    1.1143    0.0000 CT        1 <0>         0.0000
     10 O5          0.5678    1.9393    0.0000 OH        1 <0>         0.0000
     11 H1          2.1913    1.6913    0.0000 HO        1 <0>         0.0000
     12 H2          2.0198    0.8843    0.0000 H1        1 <0>         0.0000
     13 H3          2.0198    0.8843    0.0000 H1        1 <0>         0.0000
     14 H4          1.2352    0.6294    0.0000 H1        1 <0>         0.0000
     15 H5          0.1553   -0.1553    0.0000 H2        1 <0>         0.0000
     16 H6         -0.3297   -0.8227    0.0000 HO        1 <0>         0.0000
     17 H7         -0.0997    0.6294    0.0000 H1        1 <0>         0.0000
     18 H8         -0.8843    0.8843    0.0000 HO        1 <0>         0.0000
     19 H9          0.5678    1.1143    0.0000 H1        1 <0>         0.0000
     20 H10         0.5678    1.9393    0.0000 HO        1 <0>         0.0000
@<TRIPOS>BOND
     1    1    2 1
     2    2    3 1
     3    3    4 1
     4    4    5 1
     5    5    6 1
     6    5    7 1
     7    7    8 1
     8    7    9 1
     9    3    9 1
    10    9   10 1
    11    1   11 1
    12    2   12 1
    13    2   13 1
    14    3   14 1
    15    5   15 1
    16    6   16 1
    17    7   17 1
    18    8   18 1
    19    9   19 1
    20   10   20 1
@<TRIPOS>MOLECULE
*****
    5     4     0     0     0
SMALL
NO_CHARGES

@<TRIPOS>ATOM
      1 O1          1.2375   -0.7145    0.0000 OH        1 <0>         0.0000
      2 C1          1.9520   -1.1270    0.0000 C         1 <0>         0.0000
      3 O2          2.6664   -0.7145    0.0000 O         1 <0>         0.0000
      4 H1          1.2375   -0.7145    0.0000 HO        1 <0>         0.0000
      5 H2          1.9520   -1.1270    0.0000 H5        1 <0>         0.0000
@<TRIPOS>BOND
     1    1    2 1
     2    2    3 2
     3    1    4 1
     4    2    5 1
@<TRIPOS>MOLECULE
*****
   16    15     0     0     0
SMALL
NO_CHARGES

@<TRIPOS>ATOM
      1 O1         -0.1914    0.7145    0.0000 OH        1 <0>         0.0000
      2 C1          0.5230    1.1270    0.0000 CT        1 <0>         0.0000
      3 C2          1.2375    0.7145    0.0000 CT        1 <0>         0.0000
      4 C3          1.9520    1.1270    0.0000 CT        1 <0>         0.0000
      5 C4          2.6664    0.7145    0.0000 CT        1 <0>         0.0000
      6 O2          3.3809    1.1270    0.0000 OH        1 <0>         0.0000
      7 H1         -0.1914    0.7145    0.0000 HO        1 <0>         0.0000
      8 H2          0.5230    1.1270    0.0000 H1        1 <0>         0.0000
      9 H3          0.5230    1.1270    0.0000 H1        1 <0>         0.0000
     10 H4          1.2375    0.7145    0.0000 HC        1 <0>         0.0000
     11 H5          1.2375    0.7145    0.0000 HC        1 <0>         0.0000
     12 H6          1.9520    1.1270    0.0000 HC        1 <0>         0.0000
     13 H7          1.9520    1.1270    0.0000 HC        1 <0>         0.0000
     14 H8          2.6664    0.7145    0.0000 H1        1 <0>         0.0000
     15 H9          2.6664    0.7145    0.0000 H1        1 <0>         0.0000
     16 H10         3.3809    1.1270    0.0000 HO        1 <0>         0.0000
@<TRIPOS>BOND
     1    1    2 1
     2    2    3 1
     3    3    4 1
     4    4    5 1
     5    5    6 1
     6    1    7 1
     7    2    8 1
     8    2    9 1
     9    3   10 1
    10    3   11 1
    11    4   12 1
    12    4   13 1
    13    5   14 1
    14    5   15 1
    15    6   16 1
@<TRIPOS>MOLECULE
*****
   27    27     0     0     0
SMALL
NO_CHARGES

@<TRIPOS>ATOM
      1 C1          2.8579    0.8250    0.0000 CT        1 <0>         0.0000
      2 O1          2.1434    1.2375    0.0000 OS        1 <0>         0.0000
      3 C2          1.4289    0.8250    0.0000 CT        1 <0>         0.0000
      4 O2          0.7144    1.2375    0.0000 OS        1 <0>         0.0000
      5 C3          0.0000    0.8250    0.0000 CT        1 <0>         0.0000
      6 C4         -0.7145    1.2375    0.0000 CT        1 <0>         0.0000
      7 O3         -0.7145    2.0625    0.0000 OH        1 <0>         0.0000
      8 C5          0.0000    0.0000    0.0000 CT        1 <0>         0.0000
      9 O4         -0.7145   -0.4125    0.0000 OH        1 <0>         0.0000
     10 C6          0.7145   -0.4125    0.0000 CT        1 <0>         0.0000
     11 O5          0.7145   -1.2375    0.0000 OH        1 <0>         0.0000
     12 C7          1.4290    0.0000    0.0000 CT        1 <0>         0.0000
     13 O6          2.1434   -0.4125    0.0000 OH        1 <0>         0.0000
     14 H1          2.8579    0.8250    0.0000 H1        1 <0>         0.0000
     15 H2          2.8579    0.8250    0.0000 H1        1 <0>         0.0000
     16 H3          2.8579    0.8250    0.0000 H1        1 <0>         0.0000
     17 H4          1.4289    0.8250    0.0000 H2        1 <0>         0.0000
     18 H5          0.0000    0.8250    0.0000 H1        1 <0>         0.0000
     19 H6         -0.7145    1.2375    0.0000 H1        1 <0>         0.0000
     20 H7         -0.7145    1.2375    0.0000 H1        1 <0>         0.0000
     21 H8         -0.7145    2.0625    0.0000 HO        1 <0>         0.0000
     22 H9          0.0000    0.0000    0.0000 H1        1 <0>         0.0000
     23 H10        -0.7145   -0.4125    0.0000 HO        1 <0>         0.0000
     24 H11         0.7145   -0.4125    0.0000 H1        1 <0>         0.0000
     25 H12         0.7145   -1.2375    0.0000 HO        1 <0>         0.0000
     26 H13         1.4290    0.0000    0.0000 H1        1 <0>         0.0000
     27 H14         2.1434   -0.4125    0.0000 HO        1 <0>         0.0000
@<TRIPOS>BOND
     1    1    2 1
     2    2    3 1
     3    3    4 1
     4    4    5 1
     5    5    6 1
     6    6    7 1
     7    5    8 1
     8    8    9 1
     9    8   10 1
    10   10   11 1
    11   10   12 1
    12    3   12 1
    13   12   13 1
    14    1   14 1
    15    1   15 1
    16    1   16 1
    17    3   17 1
    18    5   18 1
    19    6   19 1
    20    6   20 1
    21    7   21 1
    22    8   22 1
    23    9   23 1
    24   10   24 1
    25   11   25 1
    26   12   26 1
    27   13   27 1
@<TRIPOS>MOLECULE
*****
   23    23     0     0     0
SMALL
NO_CHARGES

@<TRIPOS>ATOM
      1 O1          2.1434    1.2375    0.0000 OH        1 <0>         0.0000
      2 C1          1.4289    0.8250    0.0000 CT        1 <0>         0.0000
      3 O2          1.4289    0.0000    0.0000 OS        1 <0>         0.0000
      4 C2          0.7145   -0.4125    0.0000 CT        1 <0>         0.0000
      5 C3          0.0000    0.0000    0.0000 CT        1 <0>         0.0000
      6 O3         -0.7145   -0.4125    0.0000 OH        1 <0>         0.0000
      7 C4          0.0000    0.8250    0.0000 CT        1 <0>         0.0000
      8 O4         -0.7145    1.2375    0.0000 OH        1 <0>         0.0000
      9 C5          0.7145    1.2375    0.0000 CT        1 <0>         0.0000
     10 O5          0.7145    2.0625    0.0000 OH        1 <0>         0.0000
     11 C6          0.7145   -1.2375    0.0000 C         1 <0>         0.0000
     12 O6          1.4289   -1.6500    0.0000 OH        1 <0>         0.0000
     13 O7          0.0000   -1.6500    0.0000 O         1 <0>         0.0000
     14 H1          2.1434    1.2375    0.0000 HO        1 <0>         0.0000
     15 H2          1.4289    0.8250    0.0000 H2        1 <0>         0.0000
     16 H3          0.7145   -0.4125    0.0000 H1        1 <0>         0.0000
     17 H4          0.0000    0.0000    0.0000 H1        1 <0>         0.0000
     18 H5         -0.7145   -0.4125    0.0000 HO        1 <0>         0.0000
     19 H6          0.0000    0.8250    0.0000 H1        1 <0>         0.0000
     20 H7         -0.7145    1.2375    0.0000 HO        1 <0>         0.0000
     21 H8          0.7145    1.2375    0.0000 H1        1 <0>         0.0000
     22 H9          0.7145    2.0625    0.0000 HO        1 <0>         0.0000
     23 H10         1.4289   -1.6500    0.0000 HO        1 <0>         0.0000
@<TRIPOS>BOND
     1    1    2 1
     2    2    3 1
     3    3    4 1
     4    4    5 1
     5    5    6 1
     6    5    7 1
     7    7    8 1
     8    7    9 1
     9    2    9 1
    10    9   10 1
    11    4   11 1
    12   11   12 1
    13   11   13 2
    14    1   14 1
    15    2   15 1
    16    4   16 1
    17    5   17 1
    18    6   18 1
    19    7   19 1
    20    8   20 1
    21    9   21 1
    22   10   22 1
    23   12   23 1
@<TRIPOS>MOLECULE
*****
   69    70     0     0     0
SMALL
NO_CHARGES

@<TRIPOS>ATOM
      1 C1          3.1957   -7.1311    0.0000 CT        1 <0>         0.0000
      2 C2          3.9101   -6.7186    0.0000 CT        1 <0>         0.0000
      3 C3          4.6246   -7.1311    0.0000 CT        1 <0>         0.0000
      4 C4          5.3391   -6.7186    0.0000 CT        1 <0>         0.0000
      5 C5          6.0536   -7.1311    0.0000 CT        1 <0>         0.0000
      6 C6          6.7680   -6.7186    0.0000 CT        1 <0>         0.0000
      7 C7          7.4825   -7.1311    0.0000 CT        1 <0>         0.0000
      8 C8          8.1970   -6.7186    0.0000 CT        1 <0>         0.0000
      9 O1          8.1970   -5.8936    0.0000 OH        1 <0>         0.0000
     10 C9          8.9114   -7.1311    0.0000 CT        1 <0>         0.0000
     11 C10         9.6259   -6.7186    0.0000 CT        1 <0>         0.0000
     12 O2         10.3796   -7.0541    0.0000 OS        1 <0>         0.0000
     13 C11        10.9316   -6.4410    0.0000 CT        1 <0>         0.0000
     14 C12        11.4836   -7.0541    0.0000 CT        1 <0>         0.0000
     15 O3         11.2287   -7.8388    0.0000 OH        1 <0>         0.0000
     16 O4         11.5991   -5.9561    0.0000 OS        1 <0>         0.0000
     17 C13        12.3527   -6.2917    0.0000 CT        1 <0>         0.0000
     18 O5         13.0202   -5.8067    0.0000 OS        1 <0>         0.0000
     19 C14        13.7738   -6.1423    0.0000 CT        1 <0>         0.0000
     20 C15        14.4413   -5.6574    0.0000 CT        1 <0>         0.0000
     21 O6         14.3550   -4.8369    0.0000 OH        1 <0>         0.0000
     22 C16        13.8601   -6.9628    0.0000 CT        1 <0>         0.0000
     23 O7         14.6138   -7.2983    0.0000 OH        1 <0>         0.0000
     24 C17        13.1926   -7.4477    0.0000 CT        1 <0>         0.0000
     25 O8         13.2789   -8.2682    0.0000 OH        1 <0>         0.0000
     26 C18        12.4390   -7.1122    0.0000 CT        1 <0>         0.0000
     27 O9         11.7715   -7.5971    0.0000 OH        1 <0>         0.0000
     28 C19        10.5191   -5.7266    0.0000 CT        1 <0>         0.0000
     29 O10        10.8547   -4.9729    0.0000 OH        1 <0>         0.0000
     30 C20         9.7121   -5.8981    0.0000 CT        1 <0>         0.0000
     31 O11         9.0990   -5.3461    0.0000 OH        1 <0>         0.0000
     32 H1          3.1957   -7.1311    0.0000 HC        1 <0>         0.0000
     33 H2          3.1957   -7.1311    0.0000 HC        1 <0>         0.0000
     34 H3          3.1957   -7.1311    0.0000 HC        1 <0>         0.0000
     35 H4          3.9101   -6.7186    0.0000 HC        1 <0>         0.0000
     36 H5          3.9101   -6.7186    0.0000 HC        1 <0>         0.0000
     37 H6          4.6246   -7.1311    0.0000 HC        1 <0>         0.0000
     38 H7          4.6246   -7.1311    0.0000 HC        1 <0>         0.0000
     39 H8          5.3391   -6.7186    0.0000 HC        1 <0>         0.0000
     40 H9          5.3391   -6.7186    0.0000 HC        1 <0>         0.0000
     41 H10         6.0536   -7.1311    0.0000 HC        1 <0>         0.0000
     42 H11         6.0536   -7.1311    0.0000 HC        1 <0>         0.0000
     43 H12         6.7680   -6.7186    0.0000 HC        1 <0>         0.0000
     44 H13         6.7680   -6.7186    0.0000 HC        1 <0>         0.0000
     45 H14         7.4825   -7.1311    0.0000 HC        1 <0>         0.0000
     46 H15         7.4825   -7.1311    0.0000 HC        1 <0>         0.0000
     47 H16         8.1970   -6.7186    0.0000 H1        1 <0>         0.0000
     48 H17         8.1970   -5.8936    0.0000 HO        1 <0>         0.0000
     49 H18         8.9114   -7.1311    0.0000 HC        1 <0>         0.0000
     50 H19         8.9114   -7.1311    0.0000 HC        1 <0>         0.0000
     51 H20         9.6259   -6.7186    0.0000 H1        1 <0>         0.0000
     52 H21        11.4836   -7.0541    0.0000 H1        1 <0>         0.0000
     53 H22        11.4836   -7.0541    0.0000 H1        1 <0>         0.0000
     54 H23        11.2287   -7.8388    0.0000 HO        1 <0>         0.0000
     55 H24        12.3527   -6.2917    0.0000 H2        1 <0>         0.0000
     56 H25        13.7738   -6.1423    0.0000 H1        1 <0>         0.0000
     57 H26        14.4413   -5.6574    0.0000 H1        1 <0>         0.0000
     58 H27        14.4413   -5.6574    0.0000 H1        1 <0>         0.0000
     59 H28        14.3550   -4.8369    0.0000 HO        1 <0>         0.0000
     60 H29        13.8601   -6.9628    0.0000 H1        1 <0>         0.0000
     61 H30        14.6138   -7.2983    0.0000 HO        1 <0>         0.0000
     62 H31        13.1926   -7.4477    0.0000 H1        1 <0>         0.0000
     63 H32        13.2789   -8.2682    0.0000 HO        1 <0>         0.0000
     64 H33        12.4390   -7.1122    0.0000 H1        1 <0>         0.0000
     65 H34        11.7715   -7.5971    0.0000 HO        1 <0>         0.0000
     66 H35        10.5191   -5.7266    0.0000 H1        1 <0>         0.0000
     67 H36        10.8547   -4.9729    0.0000 HO        1 <0>         0.0000
     68 H37         9.7121   -5.8981    0.0000 H1        1 <0>         0.0000
     69 H38         9.0990   -5.3461    0.0000 HO        1 <0>         0.0000
@<TRIPOS>BOND
     1    1    2 1
     2    2    3 1
     3    3    4 1
     4    4    5 1
     5    5    6 1
     6    6    7 1
     7    7    8 1
     8    8    9 1
     9    8   10 1
    10   10   11 1
    11   11   12 1
    12   12   13 1
    13   13   14 1
    14   14   15 1
    15   13   16 1
    16   16   17 1
    17   17   18 1
    18   18   19 1
    19   19   20 1
    20   20   21 1
    21   19   22 1
    22   22   23 1
    23   22   24 1
    24   24   25 1
    25   24   26 1
    26   17   26 1
    27   26   27 1
    28   13   28 1
    29   28   29 1
    30   28   30 1
    31   11   30 1
    32   30   31 1
    33    1   32 1
    34    1   33 1
    35    1   34 1
    36    2   35 1
    37    2   36 1
    38    3   37 1
    39    3   38 1
    40    4   39 1
    41    4   40 1
    42    5   41 1
    43    5   42 1
    44    6   43 1
    45    6   44 1
    46    7   45 1
    47    7   46 1
    48    8   47 1
    49    9   48 1
    50   10   49 1
    51   10   50 1
    52   11   51 1
    53   14   52 1
    54   14   53 1
    55   15   54 1
    56   17   55 1
    57   19   56 1
    58   20   57 1
    59   20   58 1
    60   21   59 1
    61   22   60 1
    62   23   61 1
    63   24   62 1
    64   25   63 1
    65   26   64 1
    66   27   65 1
    67   28   66 1
    68   29   67 1
    69   30   68 1
    70   31   69 1
@<TRIPOS>MOLECULE
CLT
   24    24     0     0     0
SMALL
NO_CHARGES

@<TRIPOS>ATOM
      1 C1          1.4968    0.4655    0.0000 CT        1 <0>         0.0000
      2 C2          0.7823    0.0530    0.0000 CT        1 <0>         0.0000
      3 C3          0.0678    0.4655    0.0000 CT        1 <0>         0.0000
      4 C4         -0.6467    0.0530    0.0000 CA        1 <0>         0.0000
      5 C5         -0.6467   -0.7720    0.0000 CA        1 <0>         0.0000
      6 C6         -1.3611    0.4655    0.0000 CA        1 <0>         0.0000
      7 C7         -1.3611   -1.1845    0.0000 CA        1 <0>         0.0000
      8 C8         -2.0756    0.0530    0.0000 CA        1 <0>         0.0000
      9 C9         -2.0756   -0.7720    0.0000 CA        1 <0>         0.0000
     10 C10         2.2112    0.0530    0.0000 C         1 <0>         0.0000
     11 O1          2.9257    0.4655    0.0000 O         1 <0>         0.0000
     12 O2          2.2112   -0.7720    0.0000 OH        1 <0>         0.0000
     13 H1          1.4968    0.4655    0.0000 HC        1 <0>         0.0000
     14 H2          1.4968    0.4655    0.0000 HC        1 <0>         0.0000
     15 H3          0.7823    0.0530    0.0000 HC        1 <0>         0.0000
     16 H4          0.7823    0.0530    0.0000 HC        1 <0>         0.0000
     17 H5          0.0678    0.4655    0.0000 HC        1 <0>         0.0000
     18 H6          0.0678    0.4655    0.0000 HC        1 <0>         0.0000
     19 H7         -0.6467   -0.7720    0.0000 HA        1 <0>         0.0000
     20 H8         -1.3611    0.4655    0.0000 HA        1 <0>         0.0000
     21 H9         -1.3611   -1.1845    0.0000 HA        1 <0>         0.0000
     22 H10        -2.0756    0.0530    0.0000 HA        1 <0>         0.0000
     23 H11        -2.0756   -0.7720    0.0000 HA        1 <0>         0.0000
     24 H12         2.2112   -0.7720    0.0000 HO        1 <0>         0.0000
@<TRIPOS>BOND
     1    1    2 1
     2    1   10 1
     3    2    3 1
     4    3    4 1
     5    4    5 ar
     6    4    6 ar
     7    5    7 ar
     8    6    8 ar
     9    7    9 ar
    10    8    9 ar
    11   10   11 2
    12   10   12 1
    13    1   13 1
    14    1   14 1
    15    2   15 1
    16    2   16 1
    17    3   17 1
    18    3   18 1
    19    5   19 1
    20    6   20 1
    21    7   21 1
    22    8   22 1
    23    9   23 1
    24   12   24 1
@<TRIPOS>MOLECULE
*****
   14    13     0     0     0
SMALL
NO_CHARGES

@<TRIPOS>ATOM
      1 C1          1.2375    0.7145    0.0000 CT        1 <0>         0.0000
      2 C2          0.8250    0.0000    0.0000 CM        1 <0>         0.0000
      3 C3          0.0000    0.0000    0.0000 CM        1 <0>         0.0000
      4 C4         -0.4125   -0.7145    0.0000 C         1 <0>         0.0000
      5 O1          0.0000   -1.4289    0.0000 O         1 <0>         0.0000
      6 C5         -1.2375   -0.7145    0.0000 C         1 <0>         0.0000
      7 O2         -1.6500   -1.4289    0.0000 OH        1 <0>         0.0000
      8 O3         -1.6500    0.0000    0.0000 O         1 <0>         0.0000
      9 H1          1.2375    0.7145    0.0000 HC        1 <0>         0.0000
     10 H2          1.2375    0.7145    0.0000 HC        1 <0>         0.0000
     11 H3          1.2375    0.7145    0.0000 HC        1 <0>         0.0000
     12 H4          0.8250    0.0000    0.0000 HA        1 <0>         0.0000
     13 H5          0.0000    0.0000    0.0000 HA        1 <0>         0.0000
     14 H6         -1.6500   -1.4289    0.0000 HO        1 <0>         0.0000
@<TRIPOS>BOND
     1    1    2 1
     2    2    3 2
     3    3    4 1
     4    4    5 2
     5    4    6 1
     6    6    7 1
     7    6    8 2
     8    1    9 1
     9    1   10 1
    10    1   11 1
    11    2   12 1
    12    3   13 1
    13    7   14 1
@<TRIPOS>MOLECULE
ADL
   33    35     0     0     0
SMALL
NO_CHARGES

@<TRIPOS>ATOM
      1 C1          2.7924   -0.8501    0.0000 CA        1 <0>         0.0000
      2 C2          2.0779   -1.2626    0.0000 CA        1 <0>         0.0000
      3 C3          1.3634   -0.8501    0.0000 CA        1 <0>         0.0000
      4 C4          1.3634   -0.0251    0.0000 CA        1 <0>         0.0000
      5 C5          2.0779    0.3874    0.0000 CA        1 <0>         0.0000
      6 C6          2.7924   -0.0251    0.0000 CA        1 <0>         0.0000
      7 C7          0.6489    0.3874    0.0000 C         1 <0>         0.0000
      8 C8         -0.0655   -0.0251    0.0000 CA        1 <0>         0.0000
      9 C9         -0.0655   -0.8501    0.0000 CA        1 <0>         0.0000
     10 C10         0.6489   -1.2626    0.0000 CT        1 <0>         0.0000
     11 C11        -0.7800    0.3874    0.0000 CA        1 <0>         0.0000
     12 C12        -1.4945   -0.0251    0.0000 CA        1 <0>         0.0000
     13 C13        -1.4945   -0.8501    0.0000 CA        1 <0>         0.0000
     14 C14        -0.7800   -1.2626    0.0000 CA        1 <0>         0.0000
     15 C15        -2.2089    0.3874    0.0000 CT        1 <0>         0.0000
     16 C16        -2.2089    1.2124    0.0000 C         1 <0>         0.0000
     17 O1          2.0779    1.2124    0.0000 OH        1 <0>         0.0000
     18 O2          0.6489    1.2124    0.0000 O         1 <0>         0.0000
     19 O3         -0.7800    1.2124    0.0000 OH        1 <0>         0.0000
     20 O4         -2.9234    1.6249    0.0000 O         1 <0>         0.0000
     21 O5         -1.4945    1.6249    0.0000 OH        1 <0>         0.0000
     22 H1          2.7924   -0.8501    0.0000 HA        1 <0>         0.0000
     23 H2          2.0779   -1.2626    0.0000 HA        1 <0>         0.0000
     24 H3          2.7924   -0.0251    0.0000 HA        1 <0>         0.0000
     25 H4          0.6489   -1.2626    0.0000 HC        1 <0>         0.0000
     26 H5          0.6489   -1.2626    0.0000 HC        1 <0>         0.0000
     27 H6         -1.4945   -0.8501    0.0000 HA        1 <0>         0.0000
     28 H7         -0.7800   -1.2626    0.0000 HA        1 <0>         0.0000
     29 H8         -2.2089    0.3874    0.0000 HC        1 <0>         0.0000
     30 H9         -2.2089    0.3874    0.0000 HC        1 <0>         0.0000
     31 H10         2.0779    1.2124    0.0000 HO        1 <0>         0.0000
     32 H11        -0.7800    1.2124    0.0000 HO        1 <0>         0.0000
     33 H12        -1.4945    1.6249    0.0000 HO        1 <0>         0.0000
@<TRIPOS>BOND
     1    1    2 ar
     2    1    6 ar
     3    2    3 ar
     4    3    4 ar
     5    3   10 1
     6    4    5 ar
     7    4    7 1
     8    5    6 ar
     9    5   17 1
    10    7    8 1
    11    7   18 2
    12    8    9 ar
    13    8   11 ar
    14    9   10 1
    15    9   14 ar
    16   11   12 ar
    17   11   19 1
    18   12   13 ar
    19   12   15 1
    20   13   14 ar
    21   15   16 1
    22   16   20 2
    23   16   21 1
    24    1   22 1
    25    2   23 1
    26    6   24 1
    27   10   25 1
    28   10   26 1
    29   13   27 1
    30   14   28 1
    31   15   29 1
    32   15   30 1
    33   17   31 1
    34   19   32 1
    35   21   33 1
@<TRIPOS>MOLECULE
*****
   21    21     0     0     0
SMALL
NO_CHARGES

@<TRIPOS>ATOM
      1 O1         -0.7145    3.7125    0.0000 OH        1 <0>         0.0000
      2 C1          0.0000    3.3000    0.0000 C         1 <0>         0.0000
      3 O2          0.7145    3.7125    0.0000 O         1 <0>         0.0000
      4 C2          0.0000    2.4750    0.0000 CT        1 <0>         0.0000
      5 C3          0.7145    2.0625    0.0000 CT        1 <0>         0.0000
      6 C4          0.7145    1.2375    0.0000 CA        1 <0>         0.0000
      7 C5          1.4289    0.8250    0.0000 CA        1 <0>         0.0000
      8 C6          1.4289    0.0000    0.0000 CA        1 <0>         0.0000
      9 C7          0.7145   -0.4125    0.0000 CA        1 <0>         0.0000
     10 C8          0.0000    0.0000    0.0000 CA        1 <0>         0.0000
     11 C9          0.0000    0.8250    0.0000 CA        1 <0>         0.0000
     12 H1         -0.7145    3.7125    0.0000 HO        1 <0>         0.0000
     13 H2          0.0000    2.4750    0.0000 HC        1 <0>         0.0000
     14 H3          0.0000    2.4750    0.0000 HC        1 <0>         0.0000
     15 H4          0.7145    2.0625    0.0000 HC        1 <0>         0.0000
     16 H5          0.7145    2.0625    0.0000 HC        1 <0>         0.0000
     17 H6          1.4289    0.8250    0.0000 HA        1 <0>         0.0000
     18 H7          1.4289    0.0000    0.0000 HA        1 <0>         0.0000
     19 H8          0.7145   -0.4125    0.0000 HA        1 <0>         0.0000
     20 H9          0.0000    0.0000    0.0000 HA        1 <0>         0.0000
     21 H10         0.0000    0.8250    0.0000 HA        1 <0>         0.0000
@<TRIPOS>BOND
     1    1    2 1
     2    2    3 2
     3    2    4 1
     4    4    5 1
     5    5    6 1
     6    6    7 ar
     7    7    8 ar
     8    8    9 ar
     9    9   10 ar
    10   10   11 ar
    11    6   11 ar
    12    1   12 1
    13    4   13 1
    14    4   14 1
    15    5   15 1
    16    5   16 1
    17    7   17 1
    18    8   18 1
    19    9   19 1
    20   10   20 1
    21   11   21 1
@<TRIPOS>MOLECULE
*****
   41    40     0     0     0
SMALL
NO_CHARGES

@<TRIPOS>ATOM
      1 C1          7.9480    5.4138    0.0000 CT        1 <0>         0.0000
      2 O1          8.6625    5.0013    0.0000 OS        1 <0>         0.0000
      3 C2          9.3770    5.4138    0.0000 CT        1 <0>         0.0000
      4 C3         10.0914    5.0013    0.0000 CT        1 <0>         0.0000
      5 O2         10.8059    5.4138    0.0000 OS        1 <0>         0.0000
      6 C4         11.5204    5.0013    0.0000 CT        1 <0>         0.0000
      7 C5         12.2349    5.4138    0.0000 CT        1 <0>         0.0000
      8 O3         12.9493    5.0013    0.0000 OS        1 <0>         0.0000
      9 C6         13.6638    5.4138    0.0000 CT        1 <0>         0.0000
     10 C7         14.3783    5.0013    0.0000 CT        1 <0>         0.0000
     11 O4         15.0927    5.4138    0.0000 OS        1 <0>         0.0000
     12 C8         15.8072    5.0013    0.0000 CT        1 <0>         0.0000
     13 C9         16.5217    5.4138    0.0000 CT        1 <0>         0.0000
     14 O5         17.2362    5.0013    0.0000 OS        1 <0>         0.0000
     15 C10        17.9506    5.4138    0.0000 CT        1 <0>         0.0000
     16 C11        18.6651    5.0013    0.0000 CT        1 <0>         0.0000
     17 O6         19.3796    5.4138    0.0000 OH        1 <0>         0.0000
     18 H1          7.9480    5.4138    0.0000 H1        1 <0>         0.0000
     19 H2          7.9480    5.4138    0.0000 H1        1 <0>         0.0000
     20 H3          7.9480    5.4138    0.0000 H1        1 <0>         0.0000
     21 H4          9.3770    5.4138    0.0000 H1        1 <0>         0.0000
     22 H5          9.3770    5.4138    0.0000 H1        1 <0>         0.0000
     23 H6         10.0914    5.0013    0.0000 H1        1 <0>         0.0000
     24 H7         10.0914    5.0013    0.0000 H1        1 <0>         0.0000
     25 H8         11.5204    5.0013    0.0000 H1        1 <0>         0.0000
     26 H9         11.5204    5.0013    0.0000 H1        1 <0>         0.0000
     27 H10        12.2349    5.4138    0.0000 H1        1 <0>         0.0000
     28 H11        12.2349    5.4138    0.0000 H1        1 <0>         0.0000
     29 H12        13.6638    5.4138    0.0000 H1        1 <0>         0.0000
     30 H13        13.6638    5.4138    0.0000 H1        1 <0>         0.0000
     31 H14        14.3783    5.0013    0.0000 H1        1 <0>         0.0000
     32 H15        14.3783    5.0013    0.0000 H1        1 <0>         0.0000
     33 H16        15.8072    5.0013    0.0000 H1        1 <0>         0.0000
     34 H17        15.8072    5.0013    0.0000 H1        1 <0>         0.0000
     35 H18        16.5217    5.4138    0.0000 H1        1 <0>         0.0000
     36 H19        16.5217    5.4138    0.0000 H1        1 <0>         0.0000
     37 H20        17.9506    5.4138    0.0000 H1        1 <0>         0.0000
     38 H21        17.9506    5.4138    0.0000 H1        1 <0>         0.0000
     39 H22        18.6651    5.0013    0.0000 H1        1 <0>         0.0000
     40 H23        18.6651    5.0013    0.0000 H1        1 <0>         0.0000
     41 H24        19.3796    5.4138    0.0000 HO        1 <0>         0.0000
@<TRIPOS>BOND
     1    1    2 1
     2    2    3 1
     3    3    4 1
     4    4    5 1
     5    5    6 1
     6    6    7 1
     7    7    8 1
     8    8    9 1
     9    9   10 1
    10   10   11 1
    11   11   12 1
    12   12   13 1
    13   13   14 1
    14   14   15 1
    15   15   16 1
    16   16   17 1
    17    1   18 1
    18    1   19 1
    19    1   20 1
    20    3   21 1
    21    3   22 1
    22    4   23 1
    23    4   24 1
    24    6   25 1
    25    6   26 1
    26    7   27 1
    27    7   28 1
    28    9   29 1
    29    9   30 1
    30   10   31 1
    31   10   32 1
    32   12   33 1
    33   12   34 1
    34   13   35 1
    35   13   36 1
    36   15   37 1
    37   15   38 1
    38   16   39 1
    39   16   40 1
    40   17   41 1
@<TRIPOS>MOLECULE
BFL
   31    32     0     0     0
SMALL
NO_CHARGES

@<TRIPOS>ATOM
      1 C1          0.6785    0.2607    0.0000 CA        1 <0>         0.0000
      2 C2         -0.0360    3.1482    0.0000 CA        1 <0>         0.0000
      3 C3          0.6785    2.7357    0.0000 CA        1 <0>         0.0000
      4 C4          0.6785    1.9107    0.0000 CA        1 <0>         0.0000
      5 C5         -0.0360   -1.8018    0.0000 CT        1 <0>         0.0000
      6 C6         -0.7504   -2.2143    0.0000 C         1 <0>         0.0000
      7 C7          0.6785   -2.2143    0.0000 CT        1 <0>         0.0000
      8 C8          0.6785   -0.5643    0.0000 CA        1 <0>         0.0000
      9 C9         -0.0360   -0.9768    0.0000 CA        1 <0>         0.0000
     10 C10        -0.7504   -0.5643    0.0000 CA        1 <0>         0.0000
     11 C11        -0.7504    0.2607    0.0000 CA        1 <0>         0.0000
     12 C12        -0.0360    0.6732    0.0000 CP        1 <0>         0.0000
     13 C13        -0.0360    1.4982    0.0000 CP        1 <0>         0.0000
     14 C14        -0.7504    1.9107    0.0000 CA        1 <0>         0.0000
     15 C15        -0.7504    2.7357    0.0000 CA        1 <0>         0.0000
     16 O1         -0.7504   -3.0393    0.0000 OH        1 <0>         0.0000
     17 O2         -1.4649   -1.8018    0.0000 O         1 <0>         0.0000
     18 H1         -0.0360   -2.3857    0.0000 HC        1 <0>         0.0000
     19 H2          0.6785    0.2607    0.0000 HA        1 <0>         0.0000
     20 H3         -0.0360    3.1482    0.0000 HA        1 <0>         0.0000
     21 H4          0.6785    2.7357    0.0000 HA        1 <0>         0.0000
     22 H5          0.6785    1.9107    0.0000 HA        1 <0>         0.0000
     23 H6          0.6785   -2.2143    0.0000 HC        1 <0>         0.0000
     24 H7          0.6785   -2.2143    0.0000 HC        1 <0>         0.0000
     25 H8          0.6785   -2.2143    0.0000 HC        1 <0>         0.0000
     26 H9          0.6785   -0.5643    0.0000 HA        1 <0>         0.0000
     27 H10        -0.7504   -0.5643    0.0000 HA        1 <0>         0.0000
     28 H11        -0.7504    0.2607    0.0000 HA        1 <0>         0.0000
     29 H12        -0.7504    1.9107    0.0000 HA        1 <0>         0.0000
     30 H13        -0.7504    2.7357    0.0000 HA        1 <0>         0.0000
     31 H14        -0.7504   -3.0393    0.0000 HO        1 <0>         0.0000
@<TRIPOS>BOND
     1    1    8 ar
     2    1   12 ar
     3    2    3 ar
     4    2   15 ar
     5    3    4 ar
     6    4   13 ar
     7    5    6 1
     8    5    7 1
     9    5    9 1
    10    5   18 1
    11    6   16 1
    12    6   17 2
    13    8    9 ar
    14    9   10 ar
    15   10   11 ar
    16   11   12 ar
    17   12   13 1
    18   13   14 ar
    19   14   15 ar
    20    1   19 1
    21    2   20 1
    22    3   21 1
    23    4   22 1
    24    7   23 1
    25    7   24 1
    26    7   25 1
    27    8   26 1
    28   10   27 1
    29   11   28 1
    30   14   29 1
    31   15   30 1
    32   16   31 1
@<TRIPOS>MOLECULE
PG2
   57    57     0     0     0
SMALL
NO_CHARGES

@<TRIPOS>ATOM
      1 C1         -3.5770   -0.5674    0.0000 C         1 <0>         0.0000
      2 C2         -2.7923   -0.3125    0.0000 CT        1 <0>         0.0000
      3 C3         -2.6208    0.4945    0.0000 CT        1 <0>         0.0000
      4 C4         -1.8362    0.7494    0.0000 CT        1 <0>         0.0000
      5 C5         -1.2231    0.1974    0.0000 CM        1 <0>         0.0000
      6 C6         -0.4385    0.4523    0.0000 CM        1 <0>         0.0000
      7 C7         -0.2670    1.2593    0.0000 CT        1 <0>         0.0000
      8 C8          0.5177    1.5143    0.0000 CT        1 <0>         0.0000
      9 C9          0.7726    2.2989    0.0000 CT        1 <0>         0.0000
     10 C10         1.5976    2.2989    0.0000 CT        1 <0>         0.0000
     11 C11         1.8525    1.5143    0.0000 C         1 <0>         0.0000
     12 C12         1.1851    1.0293    0.0000 CT        1 <0>         0.0000
     13 C13         1.1851    0.2043    0.0000 CM        1 <0>         0.0000
     14 C14         0.4706   -0.2082    0.0000 CM        1 <0>         0.0000
     15 C15         0.4706   -1.0332    0.0000 CT        1 <0>         0.0000
     16 C16         1.1851   -1.4457    0.0000 CT        1 <0>         0.0000
     17 C17         1.8996   -1.0332    0.0000 CT        1 <0>         0.0000
     18 C18         2.6140   -1.4457    0.0000 CT        1 <0>         0.0000
     19 C19         3.3285   -1.0332    0.0000 CT        1 <0>         0.0000
     20 C20         4.0430   -1.4457    0.0000 CT        1 <0>         0.0000
     21 O1         -3.7485   -1.3744    0.0000 OH        1 <0>         0.0000
     22 O2         -4.1901   -0.0154    0.0000 O         1 <0>         0.0000
     23 O3          0.2877    2.9663    0.0000 OH        1 <0>         0.0000
     24 O4          2.6372    1.2593    0.0000 O         1 <0>         0.0000
     25 O5         -0.2438   -1.4457    0.0000 OH        1 <0>         0.0000
     26 H1          0.1048    1.9272    0.0000 HC        1 <0>         0.0000
     27 H2          0.1959    2.2075    0.0000 H1        1 <0>         0.0000
     28 H3          0.6648    0.7642    0.0000 HC        1 <0>         0.0000
     29 H4          0.9763   -0.7412    0.0000 H1        1 <0>         0.0000
     30 H5         -2.7923   -0.3125    0.0000 HC        1 <0>         0.0000
     31 H6         -2.7923   -0.3125    0.0000 HC        1 <0>         0.0000
     32 H7         -2.6208    0.4945    0.0000 HC        1 <0>         0.0000
     33 H8         -2.6208    0.4945    0.0000 HC        1 <0>         0.0000
     34 H9         -1.8362    0.7494    0.0000 HC        1 <0>         0.0000
     35 H10        -1.8362    0.7494    0.0000 HC        1 <0>         0.0000
     36 H11        -1.2231    0.1974    0.0000 HA        1 <0>         0.0000
     37 H12        -0.4385    0.4523    0.0000 HA        1 <0>         0.0000
     38 H13        -0.2670    1.2593    0.0000 HC        1 <0>         0.0000
     39 H14        -0.2670    1.2593    0.0000 HC        1 <0>         0.0000
     40 H15         1.5976    2.2989    0.0000 HC        1 <0>         0.0000
     41 H16         1.5976    2.2989    0.0000 HC        1 <0>         0.0000
     42 H17         1.1851    0.2043    0.0000 HA        1 <0>         0.0000
     43 H18         0.4706   -0.2082    0.0000 HA        1 <0>         0.0000
     44 H19         1.1851   -1.4457    0.0000 HC        1 <0>         0.0000
     45 H20         1.1851   -1.4457    0.0000 HC        1 <0>         0.0000
     46 H21         1.8996   -1.0332    0.0000 HC        1 <0>         0.0000
     47 H22         1.8996   -1.0332    0.0000 HC        1 <0>         0.0000
     48 H23         2.6140   -1.4457    0.0000 HC        1 <0>         0.0000
     49 H24         2.6140   -1.4457    0.0000 HC        1 <0>         0.0000
     50 H25         3.3285   -1.0332    0.0000 HC        1 <0>         0.0000
     51 H26         3.3285   -1.0332    0.0000 HC        1 <0>         0.0000
     52 H27         4.0430   -1.4457    0.0000 HC        1 <0>         0.0000
     53 H28         4.0430   -1.4457    0.0000 HC        1 <0>         0.0000
     54 H29         4.0430   -1.4457    0.0000 HC        1 <0>         0.0000
     55 H30        -3.7485   -1.3744    0.0000 HO        1 <0>         0.0000
     56 H31         0.2877    2.9663    0.0000 HO        1 <0>         0.0000
     57 H32        -0.2438   -1.4457    0.0000 HO        1 <0>         0.0000
@<TRIPOS>BOND
     1    1    2 1
     2    1   21 1
     3    1   22 2
     4    2    3 1
     5    3    4 1
     6    4    5 1
     7    5    6 2
     8    6    7 1
     9    7    8 1
    10    8    9 1
    11    8   12 1
    12    8   26 1
    13    9   10 1
    14    9   23 1
    15    9   27 1
    16   10   11 1
    17   11   12 1
    18   11   24 2
    19   12   13 1
    20   12   28 1
    21   13   14 2
    22   14   15 1
    23   15   16 1
    24   15   25 1
    25   15   29 1
    26   16   17 1
    27   17   18 1
    28   18   19 1
    29   19   20 1
    30    2   30 1
    31    2   31 1
    32    3   32 1
    33    3   33 1
    34    4   34 1
    35    4   35 1
    36    5   36 1
    37    6   37 1
    38    7   38 1
    39    7   39 1
    40   10   40 1
    41   10   41 1
    42   13   42 1
    43   14   43 1
    44   16   44 1
    45   16   45 1
    46   17   46 1
    47   17   47 1
    48   18   48 1
    49   18   49 1
    50   19   50 1
    51   19   51 1
    52   20   52 1
    53   20   53 1
    54   20   54 1
    55   21   55 1
    56   23   56 1
    57   25   57 1
@<TRIPOS>MOLECULE
*****
   17    17     0     0     0
SMALL
NO_CHARGES

@<TRIPOS>ATOM
      1 O1          0.7145    2.0625    0.0000 O         1 <0>         0.0000
      2 C1          0.7145    1.2375    0.0000 C         1 <0>         0.0000
      3 C2          1.4289    0.8250    0.0000 CT        1 <0>         0.0000
      4 C3          1.4289    0.0000    0.0000 CT        1 <0>         0.0000
      5 C4          0.7145   -0.4125    0.0000 CT        1 <0>         0.0000
      6 C5          0.0000    0.0000    0.0000 CT        1 <0>         0.0000
      7 C6          0.0000    0.8250    0.0000 CT        1 <0>         0.0000
      8 H1          1.4289    0.8250    0.0000 HC        1 <0>         0.0000
      9 H2          1.4289    0.8250    0.0000 HC        1 <0>         0.0000
     10 H3          1.4289    0.0000    0.0000 HC        1 <0>         0.0000
     11 H4          1.4289    0.0000    0.0000 HC        1 <0>         0.0000
     12 H5          0.7145   -0.4125    0.0000 HC        1 <0>         0.0000
     13 H6          0.7145   -0.4125    0.0000 HC        1 <0>         0.0000
     14 H7          0.0000    0.0000    0.0000 HC        1 <0>         0.0000
     15 H8          0.0000    0.0000    0.0000 HC        1 <0>         0.0000
     16 H9          0.0000    0.8250    0.0000 HC        1 <0>         0.0000
     17 H10         0.0000    0.8250    0.0000 HC        1 <0>         0.0000
@<TRIPOS>BOND
     1    1    2 2
     2    2    3 1
     3    3    4 1
     4    4    5 1
     5    5    6 1
     6    6    7 1
     7    2    7 1
     8    3    8 1
     9    3    9 1
    10    4   10 1
    11    4   11 1
    12    5   12 1
    13    5   13 1
    14    6   14 1
    15    6   15 1
    16    7   16 1
    17    7   17 1
@<TRIPOS>MOLECULE
*****
   45    46     0     0     0
SMALL
NO_CHARGES

@<TRIPOS>ATOM
      1 O1         -0.3573   -0.4125    0.0000 OS        1 <0>         0.0000
      2 C1          0.3571   -0.8250    0.0000 CT        1 <0>         0.0000
      3 C2          0.3571   -1.6500    0.0000 CT        1 <0>         0.0000
      4 C3         -0.3573   -2.0625    0.0000 CT        1 <0>         0.0000
      5 C4         -1.0718   -0.8250    0.0000 CT        1 <0>         0.0000
      6 C5         -1.0718   -1.6500    0.0000 CT        1 <0>         0.0000
      7 C6          1.0716    2.0624    0.0000 CT        1 <0>         0.0000
      8 C7          1.7861    1.6499    0.0000 CT        1 <0>         0.0000
      9 O2          0.3571    1.6499    0.0000 OS        1 <0>         0.0000
     10 C8          1.7861    0.8248    0.0000 CT        1 <0>         0.0000
     11 C9          0.3571    0.8248    0.0000 CT        1 <0>         0.0000
     12 C10         1.0716    0.4124    0.0000 CT        1 <0>         0.0000
     13 O3          1.0716    2.8874    0.0000 OH        1 <0>         0.0000
     14 O4          2.5005    2.0624    0.0000 OH        1 <0>         0.0000
     15 O5          2.5005    0.4124    0.0000 OH        1 <0>         0.0000
     16 O6          1.0716   -0.4125    0.0000 OS        1 <0>         0.0000
     17 C11        -0.3573    0.4125    0.0000 CT        1 <0>         0.0000
     18 O7         -1.0716    0.8250    0.0000 OH        1 <0>         0.0000
     19 O8          1.0716   -2.0625    0.0000 OH        1 <0>         0.0000
     20 O9         -0.3573   -2.8874    0.0000 OH        1 <0>         0.0000
     21 O10        -1.7862   -2.0624    0.0000 OH        1 <0>         0.0000
     22 C12        -1.7862   -0.4125    0.0000 CT        1 <0>         0.0000
     23 O11        -2.5006   -0.8248    0.0000 OH        1 <0>         0.0000
     24 H1          0.3571   -0.8250    0.0000 H2        1 <0>         0.0000
     25 H2          0.3571   -1.6500    0.0000 H1        1 <0>         0.0000
     26 H3         -0.3573   -2.0625    0.0000 H1        1 <0>         0.0000
     27 H4         -1.0718   -0.8250    0.0000 H1        1 <0>         0.0000
     28 H5         -1.0718   -1.6500    0.0000 H1        1 <0>         0.0000
     29 H6          1.0716    2.0624    0.0000 H2        1 <0>         0.0000
     30 H7          1.7861    1.6499    0.0000 H1        1 <0>         0.0000
     31 H8          1.7861    0.8248    0.0000 H1        1 <0>         0.0000
     32 H9          0.3571    0.8248    0.0000 H1        1 <0>         0.0000
     33 H10         1.0716    0.4124    0.0000 H1        1 <0>         0.0000
     34 H11         1.0716    2.8874    0.0000 HO        1 <0>         0.0000
     35 H12         2.5005    2.0624    0.0000 HO        1 <0>         0.0000
     36 H13         2.5005    0.4124    0.0000 HO        1 <0>         0.0000
     37 H14        -0.3573    0.4125    0.0000 H1        1 <0>         0.0000
     38 H15        -0.3573    0.4125    0.0000 H1        1 <0>         0.0000
     39 H16        -1.0716    0.8250    0.0000 HO        1 <0>         0.0000
     40 H17         1.0716   -2.0625    0.0000 HO        1 <0>         0.0000
     41 H18        -0.3573   -2.8874    0.0000 HO        1 <0>         0.0000
     42 H19        -1.7862   -2.0624    0.0000 HO        1 <0>         0.0000
     43 H20        -1.7862   -0.4125    0.0000 H1        1 <0>         0.0000
     44 H21        -1.7862   -0.4125    0.0000 H1        1 <0>         0.0000
     45 H22        -2.5006   -0.8248    0.0000 HO        1 <0>         0.0000
@<TRIPOS>BOND
     1    1    2 1
     2    2   16 1
     3    2    3 1
     4    3   19 1
     5    3    4 1
     6    4   20 1
     7    1    5 1
     8    5   22 1
     9    4    6 1
    10    5    6 1
    11    6   21 1
    12    7    8 1
    13    7    9 1
    14    7   13 1
    15    8   10 1
    16    8   14 1
    17    9   11 1
    18   10   12 1
    19   10   15 1
    20   11   12 1
    21   11   17 1
    22   12   16 1
    23   17   18 1
    24   22   23 1
    25    2   24 1
    26    3   25 1
    27    4   26 1
    28    5   27 1
    29    6   28 1
    30    7   29 1
    31    8   30 1
    32   10   31 1
    33   11   32 1
    34   12   33 1
    35   13   34 1
    36   14   35 1
    37   15   36 1
    38   17   37 1
    39   17   38 1
    40   18   39 1
    41   19   40 1
    42   20   41 1
    43   21   42 1
    44   22   43 1
    45   22   44 1
    46   23   45 1
@<TRIPOS>MOLECULE
*****
   44    45     0     0     0
SMALL
NO_CHARGES

@<TRIPOS>ATOM
      1 O1          2.8579    0.0000    0.0000 OH        1 <0>         0.0000
      2 C1          2.1434   -0.4125    0.0000 CT        1 <0>         0.0000
      3 C2          2.1434   -1.2375    0.0000 CT        1 <0>         0.0000
      4 C3          2.8579   -1.6500    0.0000 CT        1 <0>         0.0000
      5 C4          2.8579   -2.4750    0.0000 CT        1 <0>         0.0000
      6 O2          3.5724   -2.8875    0.0000 OH        1 <0>         0.0000
      7 C5          2.1434   -2.8875    0.0000 CT        1 <0>         0.0000
      8 O3          2.1434   -3.7125    0.0000 OH        1 <0>         0.0000
      9 C6          1.4289   -2.4750    0.0000 CT        1 <0>         0.0000
     10 O4          1.4289   -1.6500    0.0000 OS        1 <0>         0.0000
     11 O5          0.7145   -2.8875    0.0000 OS        1 <0>         0.0000
     12 C7          0.0000   -2.4750    0.0000 CT        1 <0>         0.0000
     13 C8         -0.7145   -2.8875    0.0000 CT        1 <0>         0.0000
     14 C9         -0.7145   -3.7125    0.0000 CT        1 <0>         0.0000
     15 O6         -1.4289   -4.1250    0.0000 OH        1 <0>         0.0000
     16 O7         -1.4289   -2.4750    0.0000 OS        1 <0>         0.0000
     17 C10        -1.4289   -1.6500    0.0000 CT        1 <0>         0.0000
     18 O8         -2.1434   -1.2375    0.0000 OH        1 <0>         0.0000
     19 C11        -0.7145   -1.2375    0.0000 CT        1 <0>         0.0000
     20 O9         -0.7145   -0.4125    0.0000 OH        1 <0>         0.0000
     21 C12         0.0000   -1.6500    0.0000 CT        1 <0>         0.0000
     22 O10         0.7145   -1.2375    0.0000 OH        1 <0>         0.0000
     23 H1          2.8579    0.0000    0.0000 HO        1 <0>         0.0000
     24 H2          2.1434   -0.4125    0.0000 H1        1 <0>         0.0000
     25 H3          2.1434   -0.4125    0.0000 H1        1 <0>         0.0000
     26 H4          2.1434   -1.2375    0.0000 H1        1 <0>         0.0000
     27 H5          2.8579   -1.6500    0.0000 HC        1 <0>         0.0000
     28 H6          2.8579   -1.6500    0.0000 HC        1 <0>         0.0000
     29 H7          2.8579   -2.4750    0.0000 H1        1 <0>         0.0000
     30 H8          3.5724   -2.8875    0.0000 HO        1 <0>         0.0000
     31 H9          2.1434   -2.8875    0.0000 H1        1 <0>         0.0000
     32 H10         2.1434   -3.7125    0.0000 HO        1 <0>         0.0000
     33 H11         1.4289   -2.4750    0.0000 H2        1 <0>         0.0000
     34 H12         0.0000   -2.4750    0.0000 H1        1 <0>         0.0000
     35 H13        -0.7145   -2.8875    0.0000 H1        1 <0>         0.0000
     36 H14        -0.7145   -3.7125    0.0000 H1        1 <0>         0.0000
     37 H15        -0.7145   -3.7125    0.0000 H1        1 <0>         0.0000
     38 H16        -1.4289   -4.1250    0.0000 HO        1 <0>         0.0000
     39 H17        -1.4289   -1.6500    0.0000 H2        1 <0>         0.0000
     40 H18        -2.1434   -1.2375    0.0000 HO        1 <0>         0.0000
     41 H19        -0.7145   -1.2375    0.0000 H1        1 <0>         0.0000
     42 H20        -0.7145   -0.4125    0.0000 HO        1 <0>         0.0000
     43 H21         0.0000   -1.6500    0.0000 H1        1 <0>         0.0000
     44 H22         0.7145   -1.2375    0.0000 HO        1 <0>         0.0000
@<TRIPOS>BOND
     1    1    2 1
     2    2    3 1
     3    3    4 1
     4    4    5 1
     5    5    6 1
     6    5    7 1
     7    7    8 1
     8    7    9 1
     9    9   10 1
    10    3   10 1
    11    9   11 1
    12   11   12 1
    13   12   13 1
    14   13   14 1
    15   14   15 1
    16   13   16 1
    17   16   17 1
    18   17   18 1
    19   17   19 1
    20   19   20 1
    21   19   21 1
    22   12   21 1
    23   21   22 1
    24    1   23 1
    25    2   24 1
    26    2   25 1
    27    3   26 1
    28    4   27 1
    29    4   28 1
    30    5   29 1
    31    6   30 1
    32    7   31 1
    33    8   32 1
    34    9   33 1
    35   12   34 1
    36   13   35 1
    37   14   36 1
    38   14   37 1
    39   15   38 1
    40   17   39 1
    41   18   40 1
    42   19   41 1
    43   20   42 1
    44   21   43 1
    45   22   44 1
@<TRIPOS>MOLECULE
*****
   12    11     0     0     0
SMALL
NO_CHARGES

@<TRIPOS>ATOM
      1 C1          1.2375    0.7145    0.0000 CT        1 <0>         0.0000
      2 C2          0.8250    0.0000    0.0000 CM        1 <0>         0.0000
      3 C3          0.0000    0.0000    0.0000 CM        1 <0>         0.0000
      4 C4         -0.4125   -0.7145    0.0000 C         1 <0>         0.0000
      5 O1          0.0000   -1.4289    0.0000 OH        1 <0>         0.0000
      6 O2         -1.2375   -0.7145    0.0000 O         1 <0>         0.0000
      7 H1          1.2375    0.7145    0.0000 HC        1 <0>         0.0000
      8 H2          1.2375    0.7145    0.0000 HC        1 <0>         0.0000
      9 H3          1.2375    0.7145    0.0000 HC        1 <0>         0.0000
     10 H4          0.8250    0.0000    0.0000 HA        1 <0>         0.0000
     11 H5          0.0000    0.0000    0.0000 HA        1 <0>         0.0000
     12 H6          0.0000   -1.4289    0.0000 HO        1 <0>         0.0000
@<TRIPOS>BOND
     1    1    2 1
     2    2    3 2
     3    3    4 1
     4    4    5 1
     5    4    6 2
     6    1    7 1
     7    1    8 1
     8    1    9 1
     9    2   10 1
    10    3   11 1
    11    5   12 1
@<TRIPOS>MOLECULE
PG5
   30    29     0     0     0
SMALL
NO_CHARGES

@<TRIPOS>ATOM
      1 C1         -3.8810   -0.2062    0.0000 CT        1 <0>         0.0000
      2 O1         -3.1666    0.2063    0.0000 OS        1 <0>         0.0000
      3 C2         -2.4522   -0.2062    0.0000 CT        1 <0>         0.0000
      4 C3         -1.7377    0.2063    0.0000 CT        1 <0>         0.0000
      5 O2         -1.0232   -0.2062    0.0000 OS        1 <0>         0.0000
      6 C4         -0.3088    0.2062    0.0000 CT        1 <0>         0.0000
      7 C5          0.4056   -0.2063    0.0000 CT        1 <0>         0.0000
      8 O3          1.1201    0.2062    0.0000 OS        1 <0>         0.0000
      9 C6          1.8346   -0.2063    0.0000 CT        1 <0>         0.0000
     10 C7          2.5491    0.2062    0.0000 CT        1 <0>         0.0000
     11 O4          3.2635   -0.2063    0.0000 OS        1 <0>         0.0000
     12 C8          3.9780    0.2062    0.0000 CT        1 <0>         0.0000
     13 H1         -3.8810   -0.2062    0.0000 H1        1 <0>         0.0000
     14 H2         -3.8810   -0.2062    0.0000 H1        1 <0>         0.0000
     15 H3         -3.8810   -0.2062    0.0000 H1        1 <0>         0.0000
     16 H4         -2.4522   -0.2062    0.0000 H1        1 <0>         0.0000
     17 H5         -2.4522   -0.2062    0.0000 H1        1 <0>         0.0000
     18 H6         -1.7377    0.2063    0.0000 H1        1 <0>         0.0000
     19 H7         -1.7377    0.2063    0.0000 H1        1 <0>         0.0000
     20 H8         -0.3088    0.2062    0.0000 H1        1 <0>         0.0000
     21 H9         -0.3088    0.2062    0.0000 H1        1 <0>         0.0000
     22 H10         0.4056   -0.2063    0.0000 H1        1 <0>         0.0000
     23 H11         0.4056   -0.2063    0.0000 H1        1 <0>         0.0000
     24 H12         1.8346   -0.2063    0.0000 H1        1 <0>         0.0000
     25 H13         1.8346   -0.2063    0.0000 H1        1 <0>         0.0000
     26 H14         2.5491    0.2062    0.0000 H1        1 <0>         0.0000
     27 H15         2.5491    0.2062    0.0000 H1        1 <0>         0.0000
     28 H16         3.9780    0.2062    0.0000 H1        1 <0>         0.0000
     29 H17         3.9780    0.2062    0.0000 H1        1 <0>         0.0000
     30 H18         3.9780    0.2062    0.0000 H1        1 <0>         0.0000
@<TRIPOS>BOND
     1    1    2 1
     2    2    3 1
     3    3    4 1
     4    4    5 1
     5    5    6 1
     6    6    7 1
     7    7    8 1
     8    8    9 1
     9    9   10 1
    10   10   11 1
    11   11   12 1
    12    1   13 1
    13    1   14 1
    14    1   15 1
    15    3   16 1
    16    3   17 1
    17    4   18 1
    18    4   19 1
    19    6   20 1
    20    6   21 1
    21    7   22 1
    22    7   23 1
    23    9   24 1
    24    9   25 1
    25   10   26 1
    26   10   27 1
    27   12   28 1
    28   12   29 1
    29   12   30 1
@<TRIPOS>MOLECULE
TRT
   61    61     0     0     0
SMALL
NO_CHARGES

@<TRIPOS>ATOM
      1 C1         -7.1839    0.8961    0.0000 CT        1 <0>         0.0000
      2 O1         -6.4695    0.4836    0.0000 OS        1 <0>         0.0000
      3 C2         -5.7550    0.8961    0.0000 CT        1 <0>         0.0000
      4 C3         -5.0405    0.4836    0.0000 CT        1 <0>         0.0000
      5 O2         -4.3261    0.8961    0.0000 OS        1 <0>         0.0000
      6 C4         -3.6116    0.4836    0.0000 CT        1 <0>         0.0000
      7 C5         -2.8971    0.8961    0.0000 CT        1 <0>         0.0000
      8 O3         -2.1826    0.4836    0.0000 OS        1 <0>         0.0000
      9 C6         -1.4682    0.8961    0.0000 CT        1 <0>         0.0000
     10 C7         -0.7537    0.4836    0.0000 CT        1 <0>         0.0000
     11 O4         -0.0392    0.8961    0.0000 OS        1 <0>         0.0000
     12 C8          0.6752    0.4836    0.0000 CA        1 <0>         0.0000
     13 C9          1.3897    0.8961    0.0000 CA        1 <0>         0.0000
     14 C10         2.1042    0.4836    0.0000 CA        1 <0>         0.0000
     15 C11         0.6752   -0.3414    0.0000 CA        1 <0>         0.0000
     16 C12         1.3897   -0.7539    0.0000 CA        1 <0>         0.0000
     17 C13         2.1042   -0.3414    0.0000 CA        1 <0>         0.0000
     18 C14         2.8186   -0.7539    0.0000 CT        1 <0>         0.0000
     19 C15         2.4061   -1.4684    0.0000 CT        1 <0>         0.0000
     20 C16         3.2311   -0.0394    0.0000 CT        1 <0>         0.0000
     21 C17         3.5331   -1.1664    0.0000 CT        1 <0>         0.0000
     22 C18         4.2476   -0.7539    0.0000 CT        1 <0>         0.0000
     23 C19         4.9621   -0.3414    0.0000 CT        1 <0>         0.0000
     24 C20         4.6601   -1.4684    0.0000 CT        1 <0>         0.0000
     25 C21         3.8351   -0.0394    0.0000 CT        1 <0>         0.0000
     26 H1         -7.1839    0.8961    0.0000 H1        1 <0>         0.0000
     27 H2         -7.1839    0.8961    0.0000 H1        1 <0>         0.0000
     28 H3         -7.1839    0.8961    0.0000 H1        1 <0>         0.0000
     29 H4         -5.7550    0.8961    0.0000 H1        1 <0>         0.0000
     30 H5         -5.7550    0.8961    0.0000 H1        1 <0>         0.0000
     31 H6         -5.0405    0.4836    0.0000 H1        1 <0>         0.0000
     32 H7         -5.0405    0.4836    0.0000 H1        1 <0>         0.0000
     33 H8         -3.6116    0.4836    0.0000 H1        1 <0>         0.0000
     34 H9         -3.6116    0.4836    0.0000 H1        1 <0>         0.0000
     35 H10        -2.8971    0.8961    0.0000 H1        1 <0>         0.0000
     36 H11        -2.8971    0.8961    0.0000 H1        1 <0>         0.0000
     37 H12        -1.4682    0.8961    0.0000 H1        1 <0>         0.0000
     38 H13        -1.4682    0.8961    0.0000 H1        1 <0>         0.0000
     39 H14        -0.7537    0.4836    0.0000 H1        1 <0>         0.0000
     40 H15        -0.7537    0.4836    0.0000 H1        1 <0>         0.0000
     41 H16         1.3897    0.8961    0.0000 HA        1 <0>         0.0000
     42 H17         2.1042    0.4836    0.0000 HA        1 <0>         0.0000
     43 H18         0.6752   -0.3414    0.0000 HA        1 <0>         0.0000
     44 H19         1.3897   -0.7539    0.0000 HA        1 <0>         0.0000
     45 H20         2.4061   -1.4684    0.0000 HC        1 <0>         0.0000
     46 H21         2.4061   -1.4684    0.0000 HC        1 <0>         0.0000
     47 H22         2.4061   -1.4684    0.0000 HC        1 <0>         0.0000
     48 H23         3.2311   -0.0394    0.0000 HC        1 <0>         0.0000
     49 H24         3.2311   -0.0394    0.0000 HC        1 <0>         0.0000
     50 H25         3.2311   -0.0394    0.0000 HC        1 <0>         0.0000
     51 H26         3.5331   -1.1664    0.0000 HC        1 <0>         0.0000
     52 H27         3.5331   -1.1664    0.0000 HC        1 <0>         0.0000
     53 H28         4.9621   -0.3414    0.0000 HC        1 <0>         0.0000
     54 H29         4.9621   -0.3414    0.0000 HC        1 <0>         0.0000
     55 H30         4.9621   -0.3414    0.0000 HC        1 <0>         0.0000
     56 H31         4.6601   -1.4684    0.0000 HC        1 <0>         0.0000
     57 H32         4.6601   -1.4684    0.0000 HC        1 <0>         0.0000
     58 H33         4.6601   -1.4684    0.0000 HC        1 <0>         0.0000
     59 H34         3.8351   -0.0394    0.0000 HC        1 <0>         0.0000
     60 H35         3.8351   -0.0394    0.0000 HC        1 <0>         0.0000
     61 H36         3.8351   -0.0394    0.0000 HC        1 <0>         0.0000
@<TRIPOS>BOND
     1    1    2 1
     2    2    3 1
     3    3    4 1
     4    4    5 1
     5    5    6 1
     6    6    7 1
     7    7    8 1
     8    8    9 1
     9    9   10 1
    10   10   11 1
    11   11   12 1
    12   12   13 ar
    13   12   15 ar
    14   13   14 ar
    15   14   17 ar
    16   15   16 ar
    17   16   17 ar
    18   17   18 1
    19   18   19 1
    20   18   20 1
    21   18   21 1
    22   21   22 1
    23   22   23 1
    24   22   24 1
    25   22   25 1
    26    1   26 1
    27    1   27 1
    28    1   28 1
    29    3   29 1
    30    3   30 1
    31    4   31 1
    32    4   32 1
    33    6   33 1
    34    6   34 1
    35    7   35 1
    36    7   36 1
    37    9   37 1
    38    9   38 1
    39   10   39 1
    40   10   40 1
    41   13   41 1
    42   14   42 1
    43   15   43 1
    44   16   44 1
    45   19   45 1
    46   19   46 1
    47   19   47 1
    48   20   48 1
    49   20   49 1
    50   20   50 1
    51   21   51 1
    52   21   52 1
    53   23   53 1
    54   23   54 1
    55   23   55 1
    56   24   56 1
    57   24   57 1
    58   24   58 1
    59   25   59 1
    60   25   60 1
    61   25   61 1
@<TRIPOS>MOLECULE
*****
  123   126     0     0     0
SMALL
NO_CHARGES

@<TRIPOS>ATOM
      1 C1         -1.4289   -4.9500    0.0000 CT        1 <0>         0.0000
      2 C2         -0.7145   -5.3625    0.0000 CT        1 <0>         0.0000
      3 C3         -0.7145   -6.1875    0.0000 CT        1 <0>         0.0000
      4 C4          0.0000   -6.6000    0.0000 CT        1 <0>         0.0000
      5 C5          0.0000   -7.4250    0.0000 CT        1 <0>         0.0000
      6 C6          0.7145   -7.8375    0.0000 CM        1 <0>         0.0000
      7 C7          0.7145   -8.6625    0.0000 CM        1 <0>         0.0000
      8 C8          1.4289   -9.0750    0.0000 CT        1 <0>         0.0000
      9 C9          2.1434   -8.6625    0.0000 CM        1 <0>         0.0000
     10 C10         2.8579   -9.0750    0.0000 CM        1 <0>         0.0000
     11 C11         3.5724   -8.6625    0.0000 CT        1 <0>         0.0000
     12 C12         4.2868   -9.0750    0.0000 CT        1 <0>         0.0000
     13 C13         5.0013   -8.6625    0.0000 CT        1 <0>         0.0000
     14 C14         5.7158   -9.0750    0.0000 CT        1 <0>         0.0000
     15 C15         6.4302   -8.6625    0.0000 CT        1 <0>         0.0000
     16 C16         7.1447   -9.0750    0.0000 CT        1 <0>         0.0000
     17 C17         7.8592   -8.6625    0.0000 CT        1 <0>         0.0000
     18 C18         8.5737   -9.0750    0.0000 C         1 <0>         0.0000
     19 O1          8.5737   -9.9000    0.0000 O         1 <0>         0.0000
     20 O2          9.2881   -8.6625    0.0000 OS        1 <0>         0.0000
     21 C19        10.0026   -9.0750    0.0000 CT        1 <0>         0.0000
     22 C20        10.7171   -8.6625    0.0000 CT        1 <0>         0.0000
     23 C21        11.4315   -9.0750    0.0000 CT        1 <0>         0.0000
     24 C22        11.4315   -9.9000    0.0000 CT        1 <0>         0.0000
     25 C23        12.1460   -9.4875    0.0000 CT        1 <0>         0.0000
     26 C24        12.1460  -10.3125    0.0000 CT        1 <0>         0.0000
     27 C25        12.8605   -9.9000    0.0000 CT        1 <0>         0.0000
     28 C26        13.5749  -10.3125    0.0000 CT        1 <0>         0.0000
     29 C27        13.5749  -11.1375    0.0000 CT        1 <0>         0.0000
     30 C28        14.3286  -10.8019    0.0000 CT        1 <0>         0.0000
     31 C29        14.1880  -11.6895    0.0000 CT        1 <0>         0.0000
     32 C30        13.8525  -12.4432    0.0000 CT        1 <0>         0.0000
     33 C31        13.0320  -12.3570    0.0000 CT        1 <0>         0.0000
     34 C32        12.8605  -11.5500    0.0000 CT        1 <0>         0.0000
     35 C33        12.1460  -11.1375    0.0000 CT        1 <0>         0.0000
     36 C34        11.4315  -11.5500    0.0000 CT        1 <0>         0.0000
     37 C35        10.7171  -11.1375    0.0000 CM        1 <0>         0.0000
     38 C36        10.7171  -10.3125    0.0000 CM        1 <0>         0.0000
     39 C37        10.0026   -9.9000    0.0000 CT        1 <0>         0.0000
     40 C38        14.9950  -11.5180    0.0000 CT        1 <0>         0.0000
     41 C39        15.5470  -12.1311    0.0000 CT        1 <0>         0.0000
     42 C40        15.2500  -10.7334    0.0000 CT        1 <0>         0.0000
     43 C41        16.0569  -10.5619    0.0000 CT        1 <0>         0.0000
     44 C42        16.3119   -9.7772    0.0000 CT        1 <0>         0.0000
     45 C43        17.1188   -9.6057    0.0000 CT        1 <0>         0.0000
     46 C44        17.3738   -8.8211    0.0000 CT        1 <0>         0.0000
     47 C45        17.6709  -10.2188    0.0000 CT        1 <0>         0.0000
     48 H1         -1.4289   -4.9500    0.0000 HC        1 <0>         0.0000
     49 H2         -1.4289   -4.9500    0.0000 HC        1 <0>         0.0000
     50 H3         -1.4289   -4.9500    0.0000 HC        1 <0>         0.0000
     51 H4         -0.7145   -5.3625    0.0000 HC        1 <0>         0.0000
     52 H5         -0.7145   -5.3625    0.0000 HC        1 <0>         0.0000
     53 H6         -0.7145   -6.1875    0.0000 HC        1 <0>         0.0000
     54 H7         -0.7145   -6.1875    0.0000 HC        1 <0>         0.0000
     55 H8          0.0000   -6.6000    0.0000 HC        1 <0>         0.0000
     56 H9          0.0000   -6.6000    0.0000 HC        1 <0>         0.0000
     57 H10         0.0000   -7.4250    0.0000 HC        1 <0>         0.0000
     58 H11         0.0000   -7.4250    0.0000 HC        1 <0>         0.0000
     59 H12         0.7145   -7.8375    0.0000 HA        1 <0>         0.0000
     60 H13         0.7145   -8.6625    0.0000 HA        1 <0>         0.0000
     61 H14         1.4289   -9.0750    0.0000 HC        1 <0>         0.0000
     62 H15         1.4289   -9.0750    0.0000 HC        1 <0>         0.0000
     63 H16         2.1434   -8.6625    0.0000 HA        1 <0>         0.0000
     64 H17         2.8579   -9.0750    0.0000 HA        1 <0>         0.0000
     65 H18         3.5724   -8.6625    0.0000 HC        1 <0>         0.0000
     66 H19         3.5724   -8.6625    0.0000 HC        1 <0>         0.0000
     67 H20         4.2868   -9.0750    0.0000 HC        1 <0>         0.0000
     68 H21         4.2868   -9.0750    0.0000 HC        1 <0>         0.0000
     69 H22         5.0013   -8.6625    0.0000 HC        1 <0>         0.0000
     70 H23         5.0013   -8.6625    0.0000 HC        1 <0>         0.0000
     71 H24         5.7158   -9.0750    0.0000 HC        1 <0>         0.0000
     72 H25         5.7158   -9.0750    0.0000 HC        1 <0>         0.0000
     73 H26         6.4302   -8.6625    0.0000 HC        1 <0>         0.0000
     74 H27         6.4302   -8.6625    0.0000 HC        1 <0>         0.0000
     75 H28         7.1447   -9.0750    0.0000 HC        1 <0>         0.0000
     76 H29         7.1447   -9.0750    0.0000 HC        1 <0>         0.0000
     77 H30         7.8592   -8.6625    0.0000 HC        1 <0>         0.0000
     78 H31         7.8592   -8.6625    0.0000 HC        1 <0>         0.0000
     79 H32        10.0026   -9.0750    0.0000 H1        1 <0>         0.0000
     80 H33        10.7171   -8.6625    0.0000 HC        1 <0>         0.0000
     81 H34        10.7171   -8.6625    0.0000 HC        1 <0>         0.0000
     82 H35        11.4315   -9.0750    0.0000 HC        1 <0>         0.0000
     83 H36        11.4315   -9.0750    0.0000 HC        1 <0>         0.0000
     84 H37        12.1460   -9.4875    0.0000 HC        1 <0>         0.0000
     85 H38        12.1460   -9.4875    0.0000 HC        1 <0>         0.0000
     86 H39        12.1460   -9.4875    0.0000 HC        1 <0>         0.0000
     87 H40        12.1460  -10.3125    0.0000 HC        1 <0>         0.0000
     88 H41        12.8605   -9.9000    0.0000 HC        1 <0>         0.0000
     89 H42        12.8605   -9.9000    0.0000 HC        1 <0>         0.0000
     90 H43        13.5749  -10.3125    0.0000 HC        1 <0>         0.0000
     91 H44        13.5749  -10.3125    0.0000 HC        1 <0>         0.0000
     92 H45        14.3286  -10.8019    0.0000 HC        1 <0>         0.0000
     93 H46        14.3286  -10.8019    0.0000 HC        1 <0>         0.0000
     94 H47        14.3286  -10.8019    0.0000 HC        1 <0>         0.0000
     95 H48        14.1880  -11.6895    0.0000 HC        1 <0>         0.0000
     96 H49        13.8525  -12.4432    0.0000 HC        1 <0>         0.0000
     97 H50        13.8525  -12.4432    0.0000 HC        1 <0>         0.0000
     98 H51        13.0320  -12.3570    0.0000 HC        1 <0>         0.0000
     99 H52        13.0320  -12.3570    0.0000 HC        1 <0>         0.0000
    100 H53        12.8605  -11.5500    0.0000 HC        1 <0>         0.0000
    101 H54        12.1460  -11.1375    0.0000 HC        1 <0>         0.0000
    102 H55        11.4315  -11.5500    0.0000 HC        1 <0>         0.0000
    103 H56        11.4315  -11.5500    0.0000 HC        1 <0>         0.0000
    104 H57        10.7171  -11.1375    0.0000 HA        1 <0>         0.0000
    105 H58        10.0026   -9.9000    0.0000 HC        1 <0>         0.0000
    106 H59        10.0026   -9.9000    0.0000 HC        1 <0>         0.0000
    107 H60        14.9950  -11.5180    0.0000 HC        1 <0>         0.0000
    108 H61        15.5470  -12.1311    0.0000 HC        1 <0>         0.0000
    109 H62        15.5470  -12.1311    0.0000 HC        1 <0>         0.0000
    110 H63        15.5470  -12.1311    0.0000 HC        1 <0>         0.0000
    111 H64        15.2500  -10.7334    0.0000 HC        1 <0>         0.0000
    112 H65        15.2500  -10.7334    0.0000 HC        1 <0>         0.0000
    113 H66        16.0569  -10.5619    0.0000 HC        1 <0>         0.0000
    114 H67        16.0569  -10.5619    0.0000 HC        1 <0>         0.0000
    115 H68        16.3119   -9.7772    0.0000 HC        1 <0>         0.0000
    116 H69        16.3119   -9.7772    0.0000 HC        1 <0>         0.0000
    117 H70        17.1188   -9.6057    0.0000 HC        1 <0>         0.0000
    118 H71        17.3738   -8.8211    0.0000 HC        1 <0>         0.0000
    119 H72        17.3738   -8.8211    0.0000 HC        1 <0>         0.0000
    120 H73        17.3738   -8.8211    0.0000 HC        1 <0>         0.0000
    121 H74        17.6709  -10.2188    0.0000 HC        1 <0>         0.0000
    122 H75        17.6709  -10.2188    0.0000 HC        1 <0>         0.0000
    123 H76        17.6709  -10.2188    0.0000 HC        1 <0>         0.0000
@<TRIPOS>BOND
     1    1    2 1
     2    2    3 1
     3    3    4 1
     4    4    5 1
     5    5    6 1
     6    6    7 2
     7    7    8 1
     8    8    9 1
     9    9   10 2
    10   10   11 1
    11   11   12 1
    12   12   13 1
    13   13   14 1
    14   14   15 1
    15   15   16 1
    16   16   17 1
    17   17   18 1
    18   18   19 2
    19   18   20 1
    20   20   21 1
    21   21   22 1
    22   22   23 1
    23   23   24 1
    24   24   25 1
    25   24   26 1
    26   26   27 1
    27   27   28 1
    28   28   29 1
    29   29   30 1
    30   29   31 1
    31   31   32 1
    32   32   33 1
    33   33   34 1
    34   29   34 1
    35   34   35 1
    36   26   35 1
    37   35   36 1
    38   36   37 1
    39   37   38 2
    40   24   38 1
    41   38   39 1
    42   21   39 1
    43   31   40 1
    44   40   41 1
    45   40   42 1
    46   42   43 1
    47   43   44 1
    48   44   45 1
    49   45   46 1
    50   45   47 1
    51    1   48 1
    52    1   49 1
    53    1   50 1
    54    2   51 1
    55    2   52 1
    56    3   53 1
    57    3   54 1
    58    4   55 1
    59    4   56 1
    60    5   57 1
    61    5   58 1
    62    6   59 1
    63    7   60 1
    64    8   61 1
    65    8   62 1
    66    9   63 1
    67   10   64 1
    68   11   65 1
    69   11   66 1
    70   12   67 1
    71   12   68 1
    72   13   69 1
    73   13   70 1
    74   14   71 1
    75   14   72 1
    76   15   73 1
    77   15   74 1
    78   16   75 1
    79   16   76 1
    80   17   77 1
    81   17   78 1
    82   21   79 1
    83   22   80 1
    84   22   81 1
    85   23   82 1
    86   23   83 1
    87   25   84 1
    88   25   85 1
    89   25   86 1
    90   26   87 1
    91   27   88 1
    92   27   89 1
    93   28   90 1
    94   28   91 1
    95   30   92 1
    96   30   93 1
    97   30   94 1
    98   31   95 1
    99   32   96 1
   100   32   97 1
   101   33   98 1
   102   33   99 1
   103   34  100 1
   104   35  101 1
   105   36  102 1
   106   36  103 1
   107   37  104 1
   108   39  105 1
   109   39  106 1
   110   40  107 1
   111   41  108 1
   112   41  109 1
   113   41  110 1
   114   42  111 1
   115   42  112 1
   116   43  113 1
   117   43  114 1
   118   44  115 1
   119   44  116 1
   120   45  117 1
   121   46  118 1
   122   46  119 1
   123   46  120 1
   124   47  121 1
   125   47  122 1
   126   47  123 1
@<TRIPOS>MOLECULE
*****
   27    27     0     0     0
SMALL
NO_CHARGES

@<TRIPOS>ATOM
      1 C1          2.8579    0.8250    0.0000 CT        1 <0>         0.0000
      2 O1          2.1434    1.2375    0.0000 OS        1 <0>         0.0000
      3 C2          1.4289    0.8250    0.0000 CT        1 <0>         0.0000
      4 O2          0.7144    1.2375    0.0000 OS        1 <0>         0.0000
      5 C3          0.0000    0.8250    0.0000 CT        1 <0>         0.0000
      6 C4         -0.7145    1.2375    0.0000 CT        1 <0>         0.0000
      7 O3         -0.7145    2.0625    0.0000 OH        1 <0>         0.0000
      8 C5          0.0000    0.0000    0.0000 CT        1 <0>         0.0000
      9 O4         -0.7145   -0.4125    0.0000 OH        1 <0>         0.0000
     10 C6          0.7145   -0.4125    0.0000 CT        1 <0>         0.0000
     11 O5          0.7145   -1.2375    0.0000 OH        1 <0>         0.0000
     12 C7          1.4290    0.0000    0.0000 CT        1 <0>         0.0000
     13 O6          2.1434   -0.4125    0.0000 OH        1 <0>         0.0000
     14 H1          2.8579    0.8250    0.0000 H1        1 <0>         0.0000
     15 H2          2.8579    0.8250    0.0000 H1        1 <0>         0.0000
     16 H3          2.8579    0.8250    0.0000 H1        1 <0>         0.0000
     17 H4          1.4289    0.8250    0.0000 H2        1 <0>         0.0000
     18 H5          0.0000    0.8250    0.0000 H1        1 <0>         0.0000
     19 H6         -0.7145    1.2375    0.0000 H1        1 <0>         0.0000
     20 H7         -0.7145    1.2375    0.0000 H1        1 <0>         0.0000
     21 H8         -0.7145    2.0625    0.0000 HO        1 <0>         0.0000
     22 H9          0.0000    0.0000    0.0000 H1        1 <0>         0.0000
     23 H10        -0.7145   -0.4125    0.0000 HO        1 <0>         0.0000
     24 H11         0.7145   -0.4125    0.0000 H1        1 <0>         0.0000
     25 H12         0.7145   -1.2375    0.0000 HO        1 <0>         0.0000
     26 H13         1.4290    0.0000    0.0000 H1        1 <0>         0.0000
     27 H14         2.1434   -0.4125    0.0000 HO        1 <0>         0.0000
@<TRIPOS>BOND
     1    1    2 1
     2    2    3 1
     3    3    4 1
     4    4    5 1
     5    5    6 1
     6    6    7 1
     7    5    8 1
     8    8    9 1
     9    8   10 1
    10   10   11 1
    11   10   12 1
    12    3   12 1
    13   12   13 1
    14    1   14 1
    15    1   15 1
    16    1   16 1
    17    3   17 1
    18    5   18 1
    19    6   19 1
    20    6   20 1
    21    7   21 1
    22    8   22 1
    23    9   23 1
    24   10   24 1
    25   11   25 1
    26   12   26 1
    27   13   27 1
@<TRIPOS>MOLECULE
Daidzin
   50    53     0     0     0
SMALL
NO_CHARGES

@<TRIPOS>ATOM
      1 O1         -3.5724   -2.0625    0.0000 OH        1 <0>         0.0000
      2 C1         -2.8579   -1.6500    0.0000 CT        1 <0>         0.0000
      3 C2         -2.8579   -0.8250    0.0000 CT        1 <0>         0.0000
      4 O2         -2.1434   -0.4125    0.0000 OS        1 <0>         0.0000
      5 C3         -2.1434    0.4125    0.0000 CT        1 <0>         0.0000
      6 O3         -1.4289    0.8250    0.0000 OS        1 <0>         0.0000
      7 C4         -0.7145    0.4125    0.0000 CA        1 <0>         0.0000
      8 C5          0.0000    0.8250    0.0000 CA        1 <0>         0.0000
      9 C6          0.7145    0.4125    0.0000 CB        1 <0>         0.0000
     10 C7          0.7145   -0.4125    0.0000 CB        1 <0>         0.0000
     11 C8          0.0000   -0.8250    0.0000 CA        1 <0>         0.0000
     12 C9         -0.7145   -0.4125    0.0000 CA        1 <0>         0.0000
     13 C10         1.4289   -0.8250    0.0000 C         1 <0>         0.0000
     14 O4          1.4289   -1.6500    0.0000 O         1 <0>         0.0000
     15 C11         2.1434   -0.4125    0.0000 CP        1 <0>         0.0000
     16 C12         2.1434    0.4125    0.0000 CA        1 <0>         0.0000
     17 O5          1.4289    0.8250    0.0000 OS        1 <0>         0.0000
     18 C13         2.8579   -0.8250    0.0000 CP        1 <0>         0.0000
     19 C14         2.8579   -1.6500    0.0000 CA        1 <0>         0.0000
     20 C15         3.5724   -2.0625    0.0000 CA        1 <0>         0.0000
     21 C16         4.2868   -1.6500    0.0000 CA        1 <0>         0.0000
     22 O6          5.0013   -2.0625    0.0000 OH        1 <0>         0.0000
     23 C17         4.2868   -0.8250    0.0000 CA        1 <0>         0.0000
     24 C18         3.5724   -0.4125    0.0000 CA        1 <0>         0.0000
     25 C19        -2.8579    0.8250    0.0000 CT        1 <0>         0.0000
     26 O7         -2.8579    1.6500    0.0000 OH        1 <0>         0.0000
     27 C20        -3.5724    0.4125    0.0000 CT        1 <0>         0.0000
     28 O8         -4.2868    0.8250    0.0000 OH        1 <0>         0.0000
     29 C21        -3.5724   -0.4125    0.0000 CT        1 <0>         0.0000
     30 O9         -4.2868   -0.8250    0.0000 OH        1 <0>         0.0000
     31 H1         -3.5724   -2.0625    0.0000 HO        1 <0>         0.0000
     32 H2         -2.8579   -1.6500    0.0000 H1        1 <0>         0.0000
     33 H3         -2.8579   -1.6500    0.0000 H1        1 <0>         0.0000
     34 H4         -2.8579   -0.8250    0.0000 H1        1 <0>         0.0000
     35 H5         -2.1434    0.4125    0.0000 H2        1 <0>         0.0000
     36 H6          0.0000    0.8250    0.0000 HA        1 <0>         0.0000
     37 H7          0.0000   -0.8250    0.0000 HA        1 <0>         0.0000
     38 H8         -0.7145   -0.4125    0.0000 HA        1 <0>         0.0000
     39 H9          2.1434    0.4125    0.0000 H4        1 <0>         0.0000
     40 H10         2.8579   -1.6500    0.0000 HA        1 <0>         0.0000
     41 H11         3.5724   -2.0625    0.0000 HA        1 <0>         0.0000
     42 H12         5.0013   -2.0625    0.0000 HO        1 <0>         0.0000
     43 H13         4.2868   -0.8250    0.0000 HA        1 <0>         0.0000
     44 H14         3.5724   -0.4125    0.0000 HA        1 <0>         0.0000
     45 H15        -2.8579    0.8250    0.0000 H1        1 <0>         0.0000
     46 H16        -2.8579    1.6500    0.0000 HO        1 <0>         0.0000
     47 H17        -3.5724    0.4125    0.0000 H1        1 <0>         0.0000
     48 H18        -4.2868    0.8250    0.0000 HO        1 <0>         0.0000
     49 H19        -3.5724   -0.4125    0.0000 H1        1 <0>         0.0000
     50 H20        -4.2868   -0.8250    0.0000 HO        1 <0>         0.0000
@<TRIPOS>BOND
     1    1    2 1
     2    2    3 1
     3    3    4 1
     4    4    5 1
     5    5    6 1
     6    6    7 1
     7    7    8 ar
     8    8    9 ar
     9    9   10 ar
    10   10   11 ar
    11   11   12 ar
    12    7   12 ar
    13   10   13 1
    14   13   14 2
    15   13   15 1
    16   15   16 2
    17   16   17 1
    18    9   17 1
    19   15   18 1
    20   18   19 ar
    21   19   20 ar
    22   20   21 ar
    23   21   22 1
    24   21   23 ar
    25   23   24 ar
    26   18   24 ar
    27    5   25 1
    28   25   26 1
    29   25   27 1
    30   27   28 1
    31   27   29 1
    32    3   29 1
    33   29   30 1
    34    1   31 1
    35    2   32 1
    36    2   33 1
    37    3   34 1
    38    5   35 1
    39    8   36 1
    40   11   37 1
    41   12   38 1
    42   16   39 1
    43   19   40 1
    44   20   41 1
    45   22   42 1
    46   23   43 1
    47   24   44 1
    48   25   45 1
    49   26   46 1
    50   27   47 1
    51   28   48 1
    52   29   49 1
    53   30   50 1
@<TRIPOS>MOLECULE
*****
   25    27     0     0     0
SMALL
NO_CHARGES

@<TRIPOS>ATOM
      1 O1         -0.4806   -2.6017    0.0000 O         1 <0>         0.0000
      2 C1          0.1163   -2.0322    0.0000 C         1 <0>         0.0000
      3 C2          0.8517   -1.6585    0.0000 CT        1 <0>         0.0000
      4 C3          0.8517   -0.9111    0.0000 CT        1 <0>         0.0000
      5 C4          1.3012   -0.1208    0.0000 CT        1 <0>         0.0000
      6 C5          2.0368   -0.4945    0.0000 CT        1 <0>         0.0000
      7 C6          2.0368   -1.2419    0.0000 CT        1 <0>         0.0000
      8 C7          1.5873   -2.0322    0.0000 CT        1 <0>         0.0000
      9 C8          1.3012   -1.6156    0.0000 CT        1 <0>         0.0000
     10 C9          0.5657   -1.2419    0.0000 CT        1 <0>         0.0000
     11 C10         0.5657   -0.4945    0.0000 CT        1 <0>         0.0000
     12 H1          0.8517   -1.6585    0.0000 HC        1 <0>         0.0000
     13 H2          0.8517   -0.9111    0.0000 HC        1 <0>         0.0000
     14 H3          0.8517   -0.9111    0.0000 HC        1 <0>         0.0000
     15 H4          1.3012   -0.1208    0.0000 HC        1 <0>         0.0000
     16 H5          2.0368   -0.4945    0.0000 HC        1 <0>         0.0000
     17 H6          2.0368   -0.4945    0.0000 HC        1 <0>         0.0000
     18 H7          2.0368   -1.2419    0.0000 HC        1 <0>         0.0000
     19 H8          1.5873   -2.0322    0.0000 HC        1 <0>         0.0000
     20 H9          1.5873   -2.0322    0.0000 HC        1 <0>         0.0000
     21 H10         1.3012   -1.6156    0.0000 HC        1 <0>         0.0000
     22 H11         1.3012   -1.6156    0.0000 HC        1 <0>         0.0000
     23 H12         0.5657   -1.2419    0.0000 HC        1 <0>         0.0000
     24 H13         0.5657   -0.4945    0.0000 HC        1 <0>         0.0000
     25 H14         0.5657   -0.4945    0.0000 HC        1 <0>         0.0000
@<TRIPOS>BOND
     1    1    2 2
     2    2    3 1
     3    5   11 1
     4    4    5 1
     5    5    6 1
     6    2   10 1
     7    7    8 1
     8    3    8 1
     9    7    9 1
    10    9   10 1
    11    6    7 1
    12   10   11 1
    13    3    4 1
    14    3   12 1
    15    4   13 1
    16    4   14 1
    17    5   15 1
    18    6   16 1
    19    6   17 1
    20    7   18 1
    21    8   19 1
    22    8   20 1
    23    9   21 1
    24    9   22 1
    25   10   23 1
    26   11   24 1
    27   11   25 1
@<TRIPOS>MOLECULE
CIN
   22    22     0     0     0
SMALL
NO_CHARGES

@<TRIPOS>ATOM
      1 C1          0.1663    0.2089    0.0000 CA        1 <0>         0.0000
      2 C2          0.1663   -0.6161    0.0000 CA        1 <0>         0.0000
      3 C3         -0.5482   -1.0286    0.0000 CA        1 <0>         0.0000
      4 C4         -1.2626   -0.6161    0.0000 CA        1 <0>         0.0000
      5 C5         -1.2626    0.2089    0.0000 CA        1 <0>         0.0000
      6 C6         -0.5482    0.6214    0.0000 CA        1 <0>         0.0000
      7 C7          0.8808    0.6214    0.0000 CM        1 <0>         0.0000
      8 C8          1.5953    0.2089    0.0000 CM        1 <0>         0.0000
      9 C9          2.3097    0.6214    0.0000 C         1 <0>         0.0000
     10 C10        -1.9771   -1.0286    0.0000 C         1 <0>         0.0000
     11 O1          3.0242    0.2089    0.0000 O         1 <0>         0.0000
     12 O2          2.3097    1.4464    0.0000 OH        1 <0>         0.0000
     13 O3         -1.9771   -1.8536    0.0000 O         1 <0>         0.0000
     14 O4         -2.6916   -0.6161    0.0000 OH        1 <0>         0.0000
     15 H1          0.1663   -0.6161    0.0000 HA        1 <0>         0.0000
     16 H2         -0.5482   -1.0286    0.0000 HA        1 <0>         0.0000
     17 H3         -1.2626    0.2089    0.0000 HA        1 <0>         0.0000
     18 H4         -0.5482    0.6214    0.0000 HA        1 <0>         0.0000
     19 H5          0.8808    0.6214    0.0000 HA        1 <0>         0.0000
     20 H6          1.5953    0.2089    0.0000 HA        1 <0>         0.0000
     21 H7          2.3097    1.4464    0.0000 HO        1 <0>         0.0000
     22 H8         -2.6916   -0.6161    0.0000 HO        1 <0>         0.0000
@<TRIPOS>BOND
     1    1    2 ar
     2    1    6 ar
     3    1    7 1
     4    2    3 ar
     5    3    4 ar
     6    4    5 ar
     7    4   10 1
     8    5    6 ar
     9    7    8 2
    10    8    9 1
    11    9   11 2
    12    9   12 1
    13   10   13 2
    14   10   14 1
    15    2   15 1
    16    3   16 1
    17    5   17 1
    18    6   18 1
    19    7   19 1
    20    8   20 1
    21   12   21 1
    22   14   22 1
@<TRIPOS>MOLECULE
*****
   19    19     0     0     0
SMALL
NO_CHARGES

@<TRIPOS>ATOM
      1 C1          2.1434    2.0625    0.0000 CT        1 <0>         0.0000
      2 O1          2.1434    1.2375    0.0000 OS        1 <0>         0.0000
      3 C2          1.4289    0.8250    0.0000 CA        1 <0>         0.0000
      4 C3          1.4289    0.0000    0.0000 CA        1 <0>         0.0000
      5 C4          0.7145   -0.4125    0.0000 CA        1 <0>         0.0000
      6 C5          0.0000    0.0000    0.0000 CA        1 <0>         0.0000
      7 C6          0.0000    0.8250    0.0000 CA        1 <0>         0.0000
      8 C7          0.7145    1.2375    0.0000 CA        1 <0>         0.0000
      9 O2          0.7145    2.0625    0.0000 OH        1 <0>         0.0000
     10 C8          0.7145   -1.2375    0.0000 C         1 <0>         0.0000
     11 O3          1.4289   -1.6500    0.0000 O2        1 <0>         0.0000
     12 O4          0.0000   -1.6500    0.0000 O2        1 <0>         0.0000
     13 H1          2.1434    2.0625    0.0000 H1        1 <0>         0.0000
     14 H2          2.1434    2.0625    0.0000 H1        1 <0>         0.0000
     15 H3          2.1434    2.0625    0.0000 H1        1 <0>         0.0000
     16 H4          1.4289    0.0000    0.0000 HA        1 <0>         0.0000
     17 H5          0.0000    0.0000    0.0000 HA        1 <0>         0.0000
     18 H6          0.0000    0.8250    0.0000 HA        1 <0>         0.0000
     19 H7          0.7145    2.0625    0.0000 HO        1 <0>         0.0000
@<TRIPOS>BOND
     1    1    2 1
     2    2    3 1
     3    3    4 ar
     4    4    5 ar
     5    5    6 ar
     6    6    7 ar
     7    7    8 ar
     8    3    8 ar
     9    8    9 1
    10    5   10 1
    11   10   11 1
    12   10   12 2
    13    1   13 1
    14    1   14 1
    15    1   15 1
    16    4   16 1
    17    6   17 1
    18    7   18 1
    19    9   19 1
@<TRIPOS>MOLECULE
*****
   15    14     0     0     0
SMALL
NO_CHARGES

@<TRIPOS>ATOM
      1 C1          2.4750   -1.4289    0.0000 CT        1 <0>         0.0000
      2 C2          2.0625   -0.7145    0.0000 CT        1 <0>         0.0000
      3 C3          1.2375   -0.7145    0.0000 CT        1 <0>         0.0000
      4 C4          0.8250    0.0000    0.0000 CT        1 <0>         0.0000
      5 O1          0.0000    0.0000    0.0000 OH        1 <0>         0.0000
      6 H1          2.4750   -1.4289    0.0000 HC        1 <0>         0.0000
      7 H2          2.4750   -1.4289    0.0000 HC        1 <0>         0.0000
      8 H3          2.4750   -1.4289    0.0000 HC        1 <0>         0.0000
      9 H4          2.0625   -0.7145    0.0000 HC        1 <0>         0.0000
     10 H5          2.0625   -0.7145    0.0000 HC        1 <0>         0.0000
     11 H6          1.2375   -0.7145    0.0000 HC        1 <0>         0.0000
     12 H7          1.2375   -0.7145    0.0000 HC        1 <0>         0.0000
     13 H8          0.8250    0.0000    0.0000 H1        1 <0>         0.0000
     14 H9          0.8250    0.0000    0.0000 H1        1 <0>         0.0000
     15 H10         0.0000    0.0000    0.0000 HO        1 <0>         0.0000
@<TRIPOS>BOND
     1    1    2 1
     2    2    3 1
     3    3    4 1
     4    4    5 1
     5    1    6 1
     6    1    7 1
     7    1    8 1
     8    2    9 1
     9    2   10 1
    10    3   11 1
    11    3   12 1
    12    4   13 1
    13    4   14 1
    14    5   15 1
@<TRIPOS>MOLECULE
BDS
   46    49     0     0     0
SMALL
NO_CHARGES

@<TRIPOS>ATOM
      1 C1          0.2728    0.1643    0.0000 CT        1 <0>         0.0000
      2 C2          0.9873   -0.2482    0.0000 C         1 <0>         0.0000
      3 O1          0.9873   -1.0732    0.0000 O         1 <0>         0.0000
      4 O2          1.7018    0.1643    0.0000 OH        1 <0>         0.0000
      5 C3          0.2728    0.9893    0.0000 CT        1 <0>         0.0000
      6 C4          0.9873    1.4018    0.0000 CA        1 <0>         0.0000
      7 C5          0.9873    2.2268    0.0000 CA        1 <0>         0.0000
      8 C6          1.7018    2.6393    0.0000 CA        1 <0>         0.0000
      9 C7          2.4162    2.2268    0.0000 CA        1 <0>         0.0000
     10 O3          3.2008    2.4818    0.0000 OS        1 <0>         0.0000
     11 C8          3.6858    1.8143    0.0000 CT        1 <0>         0.0000
     12 O4          3.2008    1.1469    0.0000 OS        1 <0>         0.0000
     13 C9          2.4162    1.4018    0.0000 CA        1 <0>         0.0000
     14 C10         1.7018    0.9893    0.0000 CA        1 <0>         0.0000
     15 C11        -0.4417   -0.2482    0.0000 CT        1 <0>         0.0000
     16 C12        -1.1561    0.1643    0.0000 C         1 <0>         0.0000
     17 O5         -1.8706   -0.2482    0.0000 O         1 <0>         0.0000
     18 O6         -1.1561    0.9893    0.0000 OH        1 <0>         0.0000
     19 C13        -0.4417   -1.0732    0.0000 CT        1 <0>         0.0000
     20 C14        -1.1561   -1.4857    0.0000 CA        1 <0>         0.0000
     21 C15        -1.1561   -2.3107    0.0000 CA        1 <0>         0.0000
     22 C16        -1.8706   -2.7232    0.0000 CA        1 <0>         0.0000
     23 C17        -2.5851   -2.3107    0.0000 CA        1 <0>         0.0000
     24 O7         -3.3697   -2.5656    0.0000 OS        1 <0>         0.0000
     25 C18        -3.8546   -1.8982    0.0000 CT        1 <0>         0.0000
     26 O8         -3.3697   -1.2307    0.0000 OS        1 <0>         0.0000
     27 C19        -2.5851   -1.4857    0.0000 CA        1 <0>         0.0000
     28 C20        -1.8706   -1.0732    0.0000 CA        1 <0>         0.0000
     29 H1          0.7785    0.4563    0.0000 HC        1 <0>         0.0000
     30 H2         -0.4417    0.3358    0.0000 HC        1 <0>         0.0000
     31 H3          1.7018    0.1643    0.0000 HO        1 <0>         0.0000
     32 H4          0.2728    0.9893    0.0000 HC        1 <0>         0.0000
     33 H5          0.2728    0.9893    0.0000 HC        1 <0>         0.0000
     34 H6          0.9873    2.2268    0.0000 HA        1 <0>         0.0000
     35 H7          1.7018    2.6393    0.0000 HA        1 <0>         0.0000
     36 H8          3.6858    1.8143    0.0000 H2        1 <0>         0.0000
     37 H9          3.6858    1.8143    0.0000 H2        1 <0>         0.0000
     38 H10         1.7018    0.9893    0.0000 HA        1 <0>         0.0000
     39 H11        -1.1561    0.9893    0.0000 HO        1 <0>         0.0000
     40 H12        -0.4417   -1.0732    0.0000 HC        1 <0>         0.0000
     41 H13        -0.4417   -1.0732    0.0000 HC        1 <0>         0.0000
     42 H14        -1.1561   -2.3107    0.0000 HA        1 <0>         0.0000
     43 H15        -1.8706   -2.7232    0.0000 HA        1 <0>         0.0000
     44 H16        -3.8546   -1.8982    0.0000 H2        1 <0>         0.0000
     45 H17        -3.8546   -1.8982    0.0000 H2        1 <0>         0.0000
     46 H18        -1.8706   -1.0732    0.0000 HA        1 <0>         0.0000
@<TRIPOS>BOND
     1    1    2 1
     2    1    5 1
     3    1   15 1
     4    1   29 1
     5    2    3 2
     6    2    4 1
     7    5    6 1
     8    6    7 ar
     9    6   14 ar
    10    7    8 ar
    11    8    9 ar
    12    9   10 1
    13    9   13 ar
    14   10   11 1
    15   11   12 1
    16   12   13 1
    17   13   14 ar
    18   15   16 1
    19   15   19 1
    20   15   30 1
    21   16   17 2
    22   16   18 1
    23   19   20 1
    24   20   21 ar
    25   20   28 ar
    26   21   22 ar
    27   22   23 ar
    28   23   24 1
    29   23   27 ar
    30   24   25 1
    31   25   26 1
    32   26   27 1
    33   27   28 ar
    34    4   31 1
    35    5   32 1
    36    5   33 1
    37    7   34 1
    38    8   35 1
    39   11   36 1
    40   11   37 1
    41   14   38 1
    42   18   39 1
    43   19   40 1
    44   19   41 1
    45   21   42 1
    46   22   43 1
    47   25   44 1
    48   25   45 1
    49   28   46 1
@<TRIPOS>MOLECULE
*****
   13    12     0     0     0
SMALL
NO_CHARGES

@<TRIPOS>ATOM
      1 C1          2.0625   -0.7145    0.0000 CT        1 <0>         0.0000
      2 C2          1.2375   -0.7145    0.0000 CT        1 <0>         0.0000
      3 O1          0.8250   -1.4289    0.0000 OH        1 <0>         0.0000
      4 C3          0.8250    0.0000    0.0000 CT        1 <0>         0.0000
      5 O2          0.0000    0.0000    0.0000 OH        1 <0>         0.0000
      6 H1          2.0625   -0.7145    0.0000 HC        1 <0>         0.0000
      7 H2          2.0625   -0.7145    0.0000 HC        1 <0>         0.0000
      8 H3          2.0625   -0.7145    0.0000 HC        1 <0>         0.0000
      9 H4          1.2375   -0.7145    0.0000 H1        1 <0>         0.0000
     10 H5          0.8250   -1.4289    0.0000 HO        1 <0>         0.0000
     11 H6          0.8250    0.0000    0.0000 H1        1 <0>         0.0000
     12 H7          0.8250    0.0000    0.0000 H1        1 <0>         0.0000
     13 H8          0.0000    0.0000    0.0000 HO        1 <0>         0.0000
@<TRIPOS>BOND
     1    1    2 1
     2    2    3 1
     3    2    4 1
     4    4    5 1
     5    1    6 1
     6    1    7 1
     7    1    8 1
     8    2    9 1
     9    3   10 1
    10    4   11 1
    11    4   12 1
    12    5   13 1
@<TRIPOS>MOLECULE
*****
  125   131     0     0     0
SMALL
NO_CHARGES

@<TRIPOS>ATOM
      1 C1         -1.1043   -2.3841    0.0000 CT        1 <0>         0.0000
      2 C2         -1.9031   -2.1776    0.0000 CT        1 <0>         0.0000
      3 C3         -2.4812   -2.7662    0.0000 CT        1 <0>         0.0000
      4 C4         -3.2800   -2.5597    0.0000 CT        1 <0>         0.0000
      5 C5         -3.5006   -1.7647    0.0000 CT        1 <0>         0.0000
      6 C6         -4.0787   -2.3533    0.0000 CT        1 <0>         0.0000
      7 C7         -4.8775   -2.1468    0.0000 CT        1 <0>         0.0000
      8 C8         -5.0981   -1.3518    0.0000 CT        1 <0>         0.0000
      9 C9         -4.5199   -0.7633    0.0000 CT        1 <0>         0.0000
     10 O1         -3.7211   -0.9698    0.0000 OS        1 <0>         0.0000
     11 O2         -2.9224   -1.1762    0.0000 OS        1 <0>         0.0000
     12 C10        -2.1236   -1.3827    0.0000 CT        1 <0>         0.0000
     13 C11        -1.5455   -0.7942    0.0000 CT        1 <0>         0.0000
     14 C12        -1.7661    0.0008    0.0000 CT        1 <0>         0.0000
     15 C13        -0.7467   -1.0006    0.0000 CT        1 <0>         0.0000
     16 C14        -0.1686   -0.4121    0.0000 CT        1 <0>         0.0000
     17 O3         -0.3891    0.3829    0.0000 OH        1 <0>         0.0000
     18 C15         0.6302   -0.6186    0.0000 CT        1 <0>         0.0000
     19 O4          1.2084   -0.0300    0.0000 OS        1 <0>         0.0000
     20 C16         2.0071   -0.2365    0.0000 CT        1 <0>         0.0000
     21 C17         2.5853    0.3520    0.0000 CT        1 <0>         0.0000
     22 C18         3.3840    0.1456    0.0000 CT        1 <0>         0.0000
     23 C19         3.6046   -0.6494    0.0000 CT        1 <0>         0.0000
     24 C20         4.2411   -0.1245    0.0000 CT        1 <0>         0.0000
     25 C21         4.9370   -0.5677    0.0000 CT        1 <0>         0.0000
     26 C22         4.7305   -1.3665    0.0000 CT        1 <0>         0.0000
     27 O5          3.9071   -1.4169    0.0000 OS        1 <0>         0.0000
     28 C23         5.2554   -2.0030    0.0000 CM        1 <0>         0.0000
     29 C24         4.9666   -2.7758    0.0000 CM        1 <0>         0.0000
     30 C25         5.4914   -3.4123    0.0000 CT        1 <0>         0.0000
     31 C26         5.2026   -4.1851    0.0000 CT        1 <0>         0.0000
     32 C27         6.3051   -3.2760    0.0000 CT        1 <0>         0.0000
     33 C28         6.5939   -2.5032    0.0000 CT        1 <0>         0.0000
     34 C29         7.4076   -2.3669    0.0000 CM        1 <0>         0.0000
     35 C30         7.6964   -1.5941    0.0000 CT        1 <0>         0.0000
     36 C31         7.9324   -3.0034    0.0000 CM        1 <0>         0.0000
     37 C32         7.6436   -3.7762    0.0000 CT        1 <0>         0.0000
     38 O6          8.4573   -3.6400    0.0000 OS        1 <0>         0.0000
     39 C33         8.9821   -4.2765    0.0000 CT        1 <0>         0.0000
     40 C34         8.6933   -5.0493    0.0000 CT        1 <0>         0.0000
     41 C35         7.8797   -5.1855    0.0000 CT        1 <0>         0.0000
     42 C36         7.3548   -4.5490    0.0000 CT        1 <0>         0.0000
     43 O7          6.5412   -4.6853    0.0000 OH        1 <0>         0.0000
     44 C37         9.7958   -4.1402    0.0000 CT        1 <0>         0.0000
     45 C38        10.3207   -4.7767    0.0000 CT        1 <0>         0.0000
     46 C39         9.6842   -5.3016    0.0000 CT        1 <0>         0.0000
     47 O8         10.9572   -4.2518    0.0000 OH        1 <0>         0.0000
     48 C40        10.8455   -5.4132    0.0000 C         1 <0>         0.0000
     49 O9         11.6592   -5.2769    0.0000 OH        1 <0>         0.0000
     50 O10        10.5567   -6.1860    0.0000 O         1 <0>         0.0000
     51 O11         6.8300   -3.9125    0.0000 OS        1 <0>         0.0000
     52 O12         3.0264   -1.2379    0.0000 OS        1 <0>         0.0000
     53 C41         2.2277   -1.0314    0.0000 CT        1 <0>         0.0000
     54 C42         1.6495   -1.6200    0.0000 CT        1 <0>         0.0000
     55 O13         1.8701   -2.4149    0.0000 OH        1 <0>         0.0000
     56 C43         0.8508   -1.4135    0.0000 CM        1 <0>         0.0000
     57 C44         0.2726   -2.0020    0.0000 CM        1 <0>         0.0000
     58 H1         -1.1043   -2.3841    0.0000 HC        1 <0>         0.0000
     59 H2         -1.1043   -2.3841    0.0000 HC        1 <0>         0.0000
     60 H3         -1.1043   -2.3841    0.0000 HC        1 <0>         0.0000
     61 H4         -1.9031   -2.1776    0.0000 HC        1 <0>         0.0000
     62 H5         -2.4812   -2.7662    0.0000 HC        1 <0>         0.0000
     63 H6         -2.4812   -2.7662    0.0000 HC        1 <0>         0.0000
     64 H7         -3.2800   -2.5597    0.0000 HC        1 <0>         0.0000
     65 H8         -3.2800   -2.5597    0.0000 HC        1 <0>         0.0000
     66 H9         -4.0787   -2.3533    0.0000 HC        1 <0>         0.0000
     67 H10        -4.0787   -2.3533    0.0000 HC        1 <0>         0.0000
     68 H11        -4.8775   -2.1468    0.0000 HC        1 <0>         0.0000
     69 H12        -4.8775   -2.1468    0.0000 HC        1 <0>         0.0000
     70 H13        -5.0981   -1.3518    0.0000 HC        1 <0>         0.0000
     71 H14        -5.0981   -1.3518    0.0000 HC        1 <0>         0.0000
     72 H15        -4.5199   -0.7633    0.0000 H1        1 <0>         0.0000
     73 H16        -4.5199   -0.7633    0.0000 H1        1 <0>         0.0000
     74 H17        -2.1236   -1.3827    0.0000 H1        1 <0>         0.0000
     75 H18        -1.5455   -0.7942    0.0000 HC        1 <0>         0.0000
     76 H19        -1.7661    0.0008    0.0000 HC        1 <0>         0.0000
     77 H20        -1.7661    0.0008    0.0000 HC        1 <0>         0.0000
     78 H21        -1.7661    0.0008    0.0000 HC        1 <0>         0.0000
     79 H22        -0.7467   -1.0006    0.0000 HC        1 <0>         0.0000
     80 H23        -0.7467   -1.0006    0.0000 HC        1 <0>         0.0000
     81 H24        -0.1686   -0.4121    0.0000 H1        1 <0>         0.0000
     82 H25        -0.3891    0.3829    0.0000 HO        1 <0>         0.0000
     83 H26         0.6302   -0.6186    0.0000 H1        1 <0>         0.0000
     84 H27         2.0071   -0.2365    0.0000 H1        1 <0>         0.0000
     85 H28         2.5853    0.3520    0.0000 HC        1 <0>         0.0000
     86 H29         2.5853    0.3520    0.0000 HC        1 <0>         0.0000
     87 H30         3.3840    0.1456    0.0000 HC        1 <0>         0.0000
     88 H31         3.3840    0.1456    0.0000 HC        1 <0>         0.0000
     89 H32         4.2411   -0.1245    0.0000 HC        1 <0>         0.0000
     90 H33         4.2411   -0.1245    0.0000 HC        1 <0>         0.0000
     91 H34         4.9370   -0.5677    0.0000 HC        1 <0>         0.0000
     92 H35         4.9370   -0.5677    0.0000 HC        1 <0>         0.0000
     93 H36         4.7305   -1.3665    0.0000 H1        1 <0>         0.0000
     94 H37         5.2554   -2.0030    0.0000 HA        1 <0>         0.0000
     95 H38         4.9666   -2.7758    0.0000 HA        1 <0>         0.0000
     96 H39         5.4914   -3.4123    0.0000 HC        1 <0>         0.0000
     97 H40         5.2026   -4.1851    0.0000 HC        1 <0>         0.0000
     98 H41         5.2026   -4.1851    0.0000 HC        1 <0>         0.0000
     99 H42         5.2026   -4.1851    0.0000 HC        1 <0>         0.0000
    100 H43         6.3051   -3.2760    0.0000 H1        1 <0>         0.0000
    101 H44         6.5939   -2.5032    0.0000 HC        1 <0>         0.0000
    102 H45         6.5939   -2.5032    0.0000 HC        1 <0>         0.0000
    103 H46         7.6964   -1.5941    0.0000 HC        1 <0>         0.0000
    104 H47         7.6964   -1.5941    0.0000 HC        1 <0>         0.0000
    105 H48         7.6964   -1.5941    0.0000 HC        1 <0>         0.0000
    106 H49         7.9324   -3.0034    0.0000 HA        1 <0>         0.0000
    107 H50         8.9821   -4.2765    0.0000 H1        1 <0>         0.0000
    108 H51         8.6933   -5.0493    0.0000 HC        1 <0>         0.0000
    109 H52         8.6933   -5.0493    0.0000 HC        1 <0>         0.0000
    110 H53         7.8797   -5.1855    0.0000 HC        1 <0>         0.0000
    111 H54         7.8797   -5.1855    0.0000 HC        1 <0>         0.0000
    112 H55         7.3548   -4.5490    0.0000 H1        1 <0>         0.0000
    113 H56         6.5412   -4.6853    0.0000 HO        1 <0>         0.0000
    114 H57         9.7958   -4.1402    0.0000 HC        1 <0>         0.0000
    115 H58         9.7958   -4.1402    0.0000 HC        1 <0>         0.0000
    116 H59         9.6842   -5.3016    0.0000 HC        1 <0>         0.0000
    117 H60         9.6842   -5.3016    0.0000 HC        1 <0>         0.0000
    118 H61         9.6842   -5.3016    0.0000 HC        1 <0>         0.0000
    119 H62        10.9572   -4.2518    0.0000 HO        1 <0>         0.0000
    120 H63        11.6592   -5.2769    0.0000 HO        1 <0>         0.0000
    121 H64         2.2277   -1.0314    0.0000 H1        1 <0>         0.0000
    122 H65         1.6495   -1.6200    0.0000 H1        1 <0>         0.0000
    123 H66         1.8701   -2.4149    0.0000 HO        1 <0>         0.0000
    124 H67         0.2726   -2.0020    0.0000 HA        1 <0>         0.0000
    125 H68         0.2726   -2.0020    0.0000 HA        1 <0>         0.0000
@<TRIPOS>BOND
     1    1    2 1
     2    2    3 1
     3    3    4 1
     4    4    5 1
     5    5    6 1
     6    6    7 1
     7    7    8 1
     8    8    9 1
     9    9   10 1
    10    5   10 1
    11    5   11 1
    12   11   12 1
    13    2   12 1
    14   12   13 1
    15   13   14 1
    16   13   15 1
    17   15   16 1
    18   16   17 1
    19   16   18 1
    20   18   19 1
    21   19   20 1
    22   20   21 1
    23   21   22 1
    24   22   23 1
    25   23   24 1
    26   24   25 1
    27   25   26 1
    28   26   27 1
    29   23   27 1
    30   26   28 1
    31   28   29 2
    32   29   30 1
    33   30   31 1
    34   30   32 1
    35   32   33 1
    36   33   34 1
    37   34   35 1
    38   34   36 2
    39   36   37 1
    40   37   38 1
    41   38   39 1
    42   39   40 1
    43   40   41 1
    44   41   42 1
    45   37   42 1
    46   42   43 1
    47   39   44 1
    48   44   45 1
    49   45   46 1
    50   45   47 1
    51   45   48 1
    52   48   49 1
    53   48   50 2
    54   37   51 1
    55   32   51 1
    56   23   52 1
    57   52   53 1
    58   20   53 1
    59   53   54 1
    60   54   55 1
    61   54   56 1
    62   18   56 1
    63   56   57 2
    64    1   58 1
    65    1   59 1
    66    1   60 1
    67    2   61 1
    68    3   62 1
    69    3   63 1
    70    4   64 1
    71    4   65 1
    72    6   66 1
    73    6   67 1
    74    7   68 1
    75    7   69 1
    76    8   70 1
    77    8   71 1
    78    9   72 1
    79    9   73 1
    80   12   74 1
    81   13   75 1
    82   14   76 1
    83   14   77 1
    84   14   78 1
    85   15   79 1
    86   15   80 1
    87   16   81 1
    88   17   82 1
    89   18   83 1
    90   20   84 1
    91   21   85 1
    92   21   86 1
    93   22   87 1
    94   22   88 1
    95   24   89 1
    96   24   90 1
    97   25   91 1
    98   25   92 1
    99   26   93 1
   100   28   94 1
   101   29   95 1
   102   30   96 1
   103   31   97 1
   104   31   98 1
   105   31   99 1
   106   32  100 1
   107   33  101 1
   108   33  102 1
   109   35  103 1
   110   35  104 1
   111   35  105 1
   112   36  106 1
   113   39  107 1
   114   40  108 1
   115   40  109 1
   116   41  110 1
   117   41  111 1
   118   42  112 1
   119   43  113 1
   120   44  114 1
   121   44  115 1
   122   46  116 1
   123   46  117 1
   124   46  118 1
   125   47  119 1
   126   49  120 1
   127   53  121 1
   128   54  122 1
   129   55  123 1
   130   57  124 1
   131   57  125 1
@<TRIPOS>MOLECULE
*****
   11    10     0     0     0
SMALL
NO_CHARGES

@<TRIPOS>ATOM
      1 O1          1.2375    2.1434    0.0000 OH        1 <0>         0.0000
      2 C1          0.8250    1.4289    0.0000 C         1 <0>         0.0000
      3 O2          0.0000    1.4289    0.0000 O         1 <0>         0.0000
      4 C2          1.2375    0.7145    0.0000 CT        1 <0>         0.0000
      5 C3          0.8250    0.0000    0.0000 C         1 <0>         0.0000
      6 O3          1.2375   -0.7145    0.0000 OH        1 <0>         0.0000
      7 O4          0.0000    0.0000    0.0000 O         1 <0>         0.0000
      8 H1          1.2375    2.1434    0.0000 HO        1 <0>         0.0000
      9 H2          1.2375    0.7145    0.0000 HC        1 <0>         0.0000
     10 H3          1.2375    0.7145    0.0000 HC        1 <0>         0.0000
     11 H4          1.2375   -0.7145    0.0000 HO        1 <0>         0.0000
@<TRIPOS>BOND
     1    1    2 1
     2    2    3 2
     3    2    4 1
     4    4    5 1
     5    5    6 1
     6    5    7 2
     7    1    8 1
     8    4    9 1
     9    4   10 1
    10    6   11 1
@<TRIPOS>MOLECULE
*****
   17    17     0     0     0
SMALL
NO_CHARGES

@<TRIPOS>ATOM
      1 O1          0.0000    3.3000    0.0000 O         1 <0>         0.0000
      2 C1          0.0000    2.4750    0.0000 C         1 <0>         0.0000
      3 C2          0.7145    2.0625    0.0000 CT        1 <0>         0.0000
      4 C3          0.7145    1.2375    0.0000 CA        1 <0>         0.0000
      5 C4          1.4289    0.8250    0.0000 CA        1 <0>         0.0000
      6 C5          1.4289    0.0000    0.0000 CA        1 <0>         0.0000
      7 C6          0.7145   -0.4125    0.0000 CA        1 <0>         0.0000
      8 C7          0.0000    0.0000    0.0000 CA        1 <0>         0.0000
      9 C8          0.0000    0.8250    0.0000 CA        1 <0>         0.0000
     10 H1          0.0000    2.4750    0.0000 H4        1 <0>         0.0000
     11 H2          0.7145    2.0625    0.0000 HC        1 <0>         0.0000
     12 H3          0.7145    2.0625    0.0000 HC        1 <0>         0.0000
     13 H4          1.4289    0.8250    0.0000 HA        1 <0>         0.0000
     14 H5          1.4289    0.0000    0.0000 HA        1 <0>         0.0000
     15 H6          0.7145   -0.4125    0.0000 HA        1 <0>         0.0000
     16 H7          0.0000    0.0000    0.0000 HA        1 <0>         0.0000
     17 H8          0.0000    0.8250    0.0000 HA        1 <0>         0.0000
@<TRIPOS>BOND
     1    1    2 2
     2    2    3 1
     3    3    4 1
     4    4    5 ar
     5    5    6 ar
     6    6    7 ar
     7    7    8 ar
     8    8    9 ar
     9    4    9 ar
    10    2   10 1
    11    3   11 1
    12    3   12 1
    13    5   13 1
    14    6   14 1
    15    7   15 1
    16    8   16 1
    17    9   17 1
@<TRIPOS>MOLECULE
EQI
   40    43     0     0     0
SMALL
NO_CHARGES

@<TRIPOS>ATOM
      1 C1          2.7176    0.3182    0.0000 CA        1 <0>         0.0000
      2 C2          2.1857    0.9489    0.0000 CA        1 <0>         0.0000
      3 C3          1.3736    0.8037    0.0000 CA        1 <0>         0.0000
      4 C4          1.0933    0.0277    0.0000 CA        1 <0>         0.0000
      5 C5          1.6251   -0.6030    0.0000 CA        1 <0>         0.0000
      6 C6          2.4373   -0.4577    0.0000 CA        1 <0>         0.0000
      7 C7          0.8418    1.4344    0.0000 CT        1 <0>         0.0000
      8 C8          0.0297    1.2892    0.0000 CM        1 <0>         0.0000
      9 C9         -0.2506    0.5132    0.0000 CM        1 <0>         0.0000
     10 C10         0.2812   -0.1175    0.0000 CT        1 <0>         0.0000
     11 C11        -1.0627    0.3680    0.0000 CT        1 <0>         0.0000
     12 C12        -1.3430   -0.4079    0.0000 CT        1 <0>         0.0000
     13 C13        -0.8112   -1.0386    0.0000 CT        1 <0>         0.0000
     14 C14         0.0009   -0.8934    0.0000 CT        1 <0>         0.0000
     15 C15        -1.7141    0.8744    0.0000 CT        1 <0>         0.0000
     16 C16        -2.3969    0.4114    0.0000 CT        1 <0>         0.0000
     17 C17        -2.1676   -0.3811    0.0000 C         1 <0>         0.0000
     18 C18        -1.7029   -1.1503    0.0000 CT        1 <0>         0.0000
     19 O1          3.5297    0.4634    0.0000 OH        1 <0>         0.0000
     20 O2         -2.6740   -1.0324    0.0000 O         1 <0>         0.0000
     21 H1          0.6576   -0.5639    0.0000 HC        1 <0>         0.0000
     22 H2         -0.9228    0.9349    0.0000 HC        1 <0>         0.0000
     23 H3          2.1857    0.9489    0.0000 HA        1 <0>         0.0000
     24 H4          1.6251   -0.6030    0.0000 HA        1 <0>         0.0000
     25 H5          2.4373   -0.4577    0.0000 HA        1 <0>         0.0000
     26 H6          0.8418    1.4344    0.0000 HC        1 <0>         0.0000
     27 H7          0.8418    1.4344    0.0000 HC        1 <0>         0.0000
     28 H8          0.0297    1.2892    0.0000 HA        1 <0>         0.0000
     29 H9         -0.8112   -1.0386    0.0000 HC        1 <0>         0.0000
     30 H10        -0.8112   -1.0386    0.0000 HC        1 <0>         0.0000
     31 H11         0.0009   -0.8934    0.0000 HC        1 <0>         0.0000
     32 H12         0.0009   -0.8934    0.0000 HC        1 <0>         0.0000
     33 H13        -1.7141    0.8744    0.0000 HC        1 <0>         0.0000
     34 H14        -1.7141    0.8744    0.0000 HC        1 <0>         0.0000
     35 H15        -2.3969    0.4114    0.0000 HC        1 <0>         0.0000
     36 H16        -2.3969    0.4114    0.0000 HC        1 <0>         0.0000
     37 H17        -1.7029   -1.1503    0.0000 HC        1 <0>         0.0000
     38 H18        -1.7029   -1.1503    0.0000 HC        1 <0>         0.0000
     39 H19        -1.7029   -1.1503    0.0000 HC        1 <0>         0.0000
     40 H20         3.5297    0.4634    0.0000 HO        1 <0>         0.0000
@<TRIPOS>BOND
     1    1    2 ar
     2    1    6 ar
     3    1   19 1
     4    2    3 ar
     5    3    4 ar
     6    3    7 1
     7    4    5 ar
     8    4   10 1
     9    5    6 ar
    10    7    8 1
    11    8    9 2
    12    9   10 1
    13    9   11 1
    14   10   14 1
    15   10   21 1
    16   11   12 1
    17   11   15 1
    18   11   22 1
    19   12   13 1
    20   12   17 1
    21   12   18 1
    22   13   14 1
    23   15   16 1
    24   16   17 1
    25   17   20 2
    26    2   23 1
    27    5   24 1
    28    6   25 1
    29    7   26 1
    30    7   27 1
    31    8   28 1
    32   13   29 1
    33   13   30 1
    34   14   31 1
    35   14   32 1
    36   15   33 1
    37   15   34 1
    38   16   35 1
    39   16   36 1
    40   18   37 1
    41   18   38 1
    42   18   39 1
    43   19   40 1
@<TRIPOS>MOLECULE
*****
   19    18     0     0     0
SMALL
NO_CHARGES

@<TRIPOS>ATOM
      1 O1          1.7605    1.8414    0.0000 OH        1 <0>         0.0000
      2 C1          2.4750    1.4289    0.0000 C         1 <0>         0.0000
      3 O2          2.4750    0.6039    0.0000 O         1 <0>         0.0000
      4 C2          3.1895    1.8414    0.0000 CT        1 <0>         0.0000
      5 C3          3.9039    1.4289    0.0000 CT        1 <0>         0.0000
      6 C4          3.9039    0.6039    0.0000 C         1 <0>         0.0000
      7 O3          4.6184    0.1914    0.0000 OH        1 <0>         0.0000
      8 O4          3.1895    0.1914    0.0000 O         1 <0>         0.0000
      9 C5          4.6184    1.8414    0.0000 C         1 <0>         0.0000
     10 O5          4.6184    2.6664    0.0000 O         1 <0>         0.0000
     11 C6          5.3329    1.4289    0.0000 C         1 <0>         0.0000
     12 O6          6.0474    1.8414    0.0000 OH        1 <0>         0.0000
     13 O7          5.3329    0.6039    0.0000 O         1 <0>         0.0000
     14 H1          1.7605    1.8414    0.0000 HO        1 <0>         0.0000
     15 H2          3.1895    1.8414    0.0000 HC        1 <0>         0.0000
     16 H3          3.1895    1.8414    0.0000 HC        1 <0>         0.0000
     17 H4          3.9039    1.4289    0.0000 HC        1 <0>         0.0000
     18 H5          4.6184    0.1914    0.0000 HO        1 <0>         0.0000
     19 H6          6.0474    1.8414    0.0000 HO        1 <0>         0.0000
@<TRIPOS>BOND
     1    1    2 1
     2    2    3 2
     3    2    4 1
     4    4    5 1
     5    5    6 1
     6    6    7 1
     7    6    8 2
     8    5    9 1
     9    9   10 2
    10    9   11 1
    11   11   12 1
    12   11   13 2
    13    1   14 1
    14    4   15 1
    15    4   16 1
    16    5   17 1
    17    7   18 1
    18   12   19 1
@<TRIPOS>MOLECULE
*****
   19    19     0     0     0
SMALL
NO_CHARGES

@<TRIPOS>ATOM
      1 O1          0.0000    3.3000    0.0000 OH        1 <0>         0.0000
      2 C1          0.0000    2.4750    0.0000 CT        1 <0>         0.0000
      3 C2          0.7145    2.0625    0.0000 CT        1 <0>         0.0000
      4 C3          0.7145    1.2375    0.0000 CA        1 <0>         0.0000
      5 C4          1.4289    0.8250    0.0000 CA        1 <0>         0.0000
      6 C5          1.4289    0.0000    0.0000 CA        1 <0>         0.0000
      7 C6          0.7145   -0.4125    0.0000 CA        1 <0>         0.0000
      8 C7          0.0000    0.0000    0.0000 CA        1 <0>         0.0000
      9 C8          0.0000    0.8250    0.0000 CA        1 <0>         0.0000
     10 H1          0.0000    3.3000    0.0000 HO        1 <0>         0.0000
     11 H2          0.0000    2.4750    0.0000 H1        1 <0>         0.0000
     12 H3          0.0000    2.4750    0.0000 H1        1 <0>         0.0000
     13 H4          0.7145    2.0625    0.0000 HC        1 <0>         0.0000
     14 H5          0.7145    2.0625    0.0000 HC        1 <0>         0.0000
     15 H6          1.4289    0.8250    0.0000 HA        1 <0>         0.0000
     16 H7          1.4289    0.0000    0.0000 HA        1 <0>         0.0000
     17 H8          0.7145   -0.4125    0.0000 HA        1 <0>         0.0000
     18 H9          0.0000    0.0000    0.0000 HA        1 <0>         0.0000
     19 H10         0.0000    0.8250    0.0000 HA        1 <0>         0.0000
@<TRIPOS>BOND
     1    1    2 1
     2    2    3 1
     3    3    4 1
     4    4    5 ar
     5    5    6 ar
     6    6    7 ar
     7    7    8 ar
     8    8    9 ar
     9    4    9 ar
    10    1   10 1
    11    2   11 1
    12    2   12 1
    13    3   13 1
    14    3   14 1
    15    5   15 1
    16    6   16 1
    17    7   17 1
    18    8   18 1
    19    9   19 1
@<TRIPOS>MOLECULE
*****
    9     8     0     0     0
SMALL
NO_CHARGES

@<TRIPOS>ATOM
      1 O1          1.2375    2.1434    0.0000 O2        1 <0>         0.0000
      2 C1          0.8250    1.4289    0.0000 C         1 <0>         0.0000
      3 O2          0.0000    1.4289    0.0000 O2        1 <0>         0.0000
      4 C2          1.2375    0.7145    0.0000 CT        1 <0>         0.0000
      5 C3          0.8250    0.0000    0.0000 C         1 <0>         0.0000
      6 O3          1.2375   -0.7145    0.0000 O2        1 <0>         0.0000
      7 O4          0.0000    0.0000    0.0000 O2        1 <0>         0.0000
      8 H1          1.2375    0.7145    0.0000 HC        1 <0>         0.0000
      9 H2          1.2375    0.7145    0.0000 HC        1 <0>         0.0000
@<TRIPOS>BOND
     1    1    2 1
     2    2    3 2
     3    2    4 1
     4    4    5 1
     5    5    6 1
     6    5    7 2
     7    4    8 1
     8    4    9 1
@<TRIPOS>MOLECULE
*****
   16    15     0     0     0
SMALL
NO_CHARGES

@<TRIPOS>ATOM
      1 C1          2.4750   -1.4289    0.0000 CT        1 <0>         0.0000
      2 C2          2.0625   -0.7145    0.0000 CT        1 <0>         0.0000
      3 O1          2.4750    0.0000    0.0000 OH        1 <0>         0.0000
      4 C3          1.2375   -0.7145    0.0000 CT        1 <0>         0.0000
      5 C4          0.8250    0.0000    0.0000 CT        1 <0>         0.0000
      6 O2          0.0000    0.0000    0.0000 OH        1 <0>         0.0000
      7 H1          2.4750   -1.4289    0.0000 HC        1 <0>         0.0000
      8 H2          2.4750   -1.4289    0.0000 HC        1 <0>         0.0000
      9 H3          2.4750   -1.4289    0.0000 HC        1 <0>         0.0000
     10 H4          2.0625   -0.7145    0.0000 H1        1 <0>         0.0000
     11 H5          2.4750    0.0000    0.0000 HO        1 <0>         0.0000
     12 H6          1.2375   -0.7145    0.0000 HC        1 <0>         0.0000
     13 H7          1.2375   -0.7145    0.0000 HC        1 <0>         0.0000
     14 H8          0.8250    0.0000    0.0000 H1        1 <0>         0.0000
     15 H9          0.8250    0.0000    0.0000 H1        1 <0>         0.0000
     16 H10         0.0000    0.0000    0.0000 HO        1 <0>         0.0000
@<TRIPOS>BOND
     1    1    2 1
     2    2    3 1
     3    2    4 1
     4    4    5 1
     5    5    6 1
     6    1    7 1
     7    1    8 1
     8    1    9 1
     9    2   10 1
    10    3   11 1
    11    4   12 1
    12    4   13 1
    13    5   14 1
    14    5   15 1
    15    6   16 1
@<TRIPOS>MOLECULE
BRZ
   45    47     0     0     0
SMALL
NO_CHARGES

@<TRIPOS>ATOM
      1 C1         -0.4027   -0.0510    0.0000 CB        1 <0>         0.0000
      2 C2          0.3118    0.3615    0.0000 CA        1 <0>         0.0000
      3 C3          1.0262   -0.0510    0.0000 CA        1 <0>         0.0000
      4 C4          1.0262   -0.8760    0.0000 CA        1 <0>         0.0000
      5 C5          0.3118   -1.2885    0.0000 CA        1 <0>         0.0000
      6 C6         -0.4027   -0.8760    0.0000 CB        1 <0>         0.0000
      7 O1         -1.1172   -1.2885    0.0000 OS        1 <0>         0.0000
      8 C7         -1.8317   -0.8760    0.0000 C         1 <0>         0.0000
      9 C8         -1.8317   -0.0510    0.0000 CA        1 <0>         0.0000
     10 C9         -1.1172    0.3615    0.0000 CA        1 <0>         0.0000
     11 O2          1.8109   -1.1309    0.0000 OS        1 <0>         0.0000
     12 C10         2.2958   -0.4635    0.0000 CT        1 <0>         0.0000
     13 C11         1.8109    0.2040    0.0000 CT        1 <0>         0.0000
     14 O3         -2.5461   -1.2885    0.0000 O         1 <0>         0.0000
     15 C12        -2.5461    0.3615    0.0000 CT        1 <0>         0.0000
     16 C13        -2.9586   -0.3529    0.0000 CT        1 <0>         0.0000
     17 C14        -2.1336    1.0760    0.0000 CT        1 <0>         0.0000
     18 C15        -3.2606    0.7740    0.0000 CM        1 <0>         0.0000
     19 C16        -3.9751    0.3615    0.0000 CM        1 <0>         0.0000
     20 C17         3.1208   -0.4635    0.0000 CT        1 <0>         0.0000
     21 O4          3.9458   -0.4635    0.0000 OH        1 <0>         0.0000
     22 C18         3.1208   -1.2885    0.0000 CT        1 <0>         0.0000
     23 C19         3.1208    0.3615    0.0000 CT        1 <0>         0.0000
     24 H1          2.5609   -0.9837    0.0000 H1        1 <0>         0.0000
     25 H2          0.3118    0.3615    0.0000 HA        1 <0>         0.0000
     26 H3          0.3118   -1.2885    0.0000 HA        1 <0>         0.0000
     27 H4         -1.1172    0.3615    0.0000 HA        1 <0>         0.0000
     28 H5          1.8109    0.2040    0.0000 HC        1 <0>         0.0000
     29 H6          1.8109    0.2040    0.0000 HC        1 <0>         0.0000
     30 H7         -2.9586   -0.3529    0.0000 HC        1 <0>         0.0000
     31 H8         -2.9586   -0.3529    0.0000 HC        1 <0>         0.0000
     32 H9         -2.9586   -0.3529    0.0000 HC        1 <0>         0.0000
     33 H10        -2.1336    1.0760    0.0000 HC        1 <0>         0.0000
     34 H11        -2.1336    1.0760    0.0000 HC        1 <0>         0.0000
     35 H12        -2.1336    1.0760    0.0000 HC        1 <0>         0.0000
     36 H13        -3.2606    0.7740    0.0000 HA        1 <0>         0.0000
     37 H14        -3.9751    0.3615    0.0000 HA        1 <0>         0.0000
     38 H15        -3.9751    0.3615    0.0000 HA        1 <0>         0.0000
     39 H16         3.9458   -0.4635    0.0000 HO        1 <0>         0.0000
     40 H17         3.1208   -1.2885    0.0000 HC        1 <0>         0.0000
     41 H18         3.1208   -1.2885    0.0000 HC        1 <0>         0.0000
     42 H19         3.1208   -1.2885    0.0000 HC        1 <0>         0.0000
     43 H20         3.1208    0.3615    0.0000 HC        1 <0>         0.0000
     44 H21         3.1208    0.3615    0.0000 HC        1 <0>         0.0000
     45 H22         3.1208    0.3615    0.0000 HC        1 <0>         0.0000
@<TRIPOS>BOND
     1    1    2 ar
     2    1    6 ar
     3    1   10 1
     4    2    3 ar
     5    3    4 ar
     6    3   13 1
     7    4    5 ar
     8    4   11 1
     9    5    6 ar
    10    6    7 1
    11    7    8 1
    12    8    9 1
    13    8   14 2
    14    9   10 2
    15    9   15 1
    16   11   12 1
    17   12   13 1
    18   12   20 1
    19   12   24 1
    20   15   16 1
    21   15   17 1
    22   15   18 1
    23   18   19 2
    24   20   21 1
    25   20   22 1
    26   20   23 1
    27    2   25 1
    28    5   26 1
    29   10   27 1
    30   13   28 1
    31   13   29 1
    32   16   30 1
    33   16   31 1
    34   16   32 1
    35   17   33 1
    36   17   34 1
    37   17   35 1
    38   18   36 1
    39   19   37 1
    40   19   38 1
    41   21   39 1
    42   22   40 1
    43   22   41 1
    44   22   42 1
    45   23   43 1
    46   23   44 1
    47   23   45 1
@<TRIPOS>MOLECULE
*****
   22    21     0     0     0
SMALL
NO_CHARGES

@<TRIPOS>ATOM
      1 O1          1.0461    1.4289    0.0000 OH        1 <0>         0.0000
      2 C1          1.7605    1.8414    0.0000 CT        1 <0>         0.0000
      3 C2          2.4750    1.4289    0.0000 CT        1 <0>         0.0000
      4 C3          3.1895    1.8414    0.0000 CT        1 <0>         0.0000
      5 C4          3.9039    1.4289    0.0000 CT        1 <0>         0.0000
      6 C5          4.6184    1.8414    0.0000 CT        1 <0>         0.0000
      7 C6          5.3329    1.4289    0.0000 CT        1 <0>         0.0000
      8 O2          6.0474    1.8414    0.0000 OH        1 <0>         0.0000
      9 H1          1.0461    1.4289    0.0000 HO        1 <0>         0.0000
     10 H2          1.7605    1.8414    0.0000 H1        1 <0>         0.0000
     11 H3          1.7605    1.8414    0.0000 H1        1 <0>         0.0000
     12 H4          2.4750    1.4289    0.0000 HC        1 <0>         0.0000
     13 H5          2.4750    1.4289    0.0000 HC        1 <0>         0.0000
     14 H6          3.1895    1.8414    0.0000 HC        1 <0>         0.0000
     15 H7          3.1895    1.8414    0.0000 HC        1 <0>         0.0000
     16 H8          3.9039    1.4289    0.0000 HC        1 <0>         0.0000
     17 H9          3.9039    1.4289    0.0000 HC        1 <0>         0.0000
     18 H10         4.6184    1.8414    0.0000 HC        1 <0>         0.0000
     19 H11         4.6184    1.8414    0.0000 HC        1 <0>         0.0000
     20 H12         5.3329    1.4289    0.0000 H1        1 <0>         0.0000
     21 H13         5.3329    1.4289    0.0000 H1        1 <0>         0.0000
     22 H14         6.0474    1.8414    0.0000 HO        1 <0>         0.0000
@<TRIPOS>BOND
     1    1    2 1
     2    2    3 1
     3    3    4 1
     4    4    5 1
     5    5    6 1
     6    6    7 1
     7    7    8 1
     8    1    9 1
     9    2   10 1
    10    2   11 1
    11    3   12 1
    12    3   13 1
    13    4   14 1
    14    4   15 1
    15    5   16 1
    16    5   17 1
    17    6   18 1
    18    6   19 1
    19    7   20 1
    20    7   21 1
    21    8   22 1
@<TRIPOS>MOLECULE
*****
   34    36     0     0     0
SMALL
NO_CHARGES

@<TRIPOS>ATOM
      1 O1          0.0000   -1.6500    0.0000 OH        1 <0>         0.0000
      2 C1          0.7145   -1.2375    0.0000 CT        1 <0>         0.0000
      3 C2          0.7145   -0.4125    0.0000 CT        1 <0>         0.0000
      4 O2          1.4289    0.0000    0.0000 OS        1 <0>         0.0000
      5 C3          2.1434   -0.4125    0.0000 CA        1 <0>         0.0000
      6 C4          2.8579    0.0000    0.0000 CA        1 <0>         0.0000
      7 C5          3.5724   -0.4125    0.0000 CA        1 <0>         0.0000
      8 O3          4.2868    0.0000    0.0000 OH        1 <0>         0.0000
      9 C6          3.5724   -1.2375    0.0000 CA        1 <0>         0.0000
     10 C7          2.8579   -1.6500    0.0000 CA        1 <0>         0.0000
     11 O4          2.8579   -2.4750    0.0000 OH        1 <0>         0.0000
     12 C8          2.1434   -1.2375    0.0000 CA        1 <0>         0.0000
     13 C9          1.4289   -1.6500    0.0000 C         1 <0>         0.0000
     14 O5          1.4289   -2.4750    0.0000 O         1 <0>         0.0000
     15 C10         0.0000    0.0000    0.0000 CA        1 <0>         0.0000
     16 C11        -0.7145   -0.4125    0.0000 CA        1 <0>         0.0000
     17 C12        -1.4289    0.0000    0.0000 CA        1 <0>         0.0000
     18 C13        -1.4289    0.8250    0.0000 CA        1 <0>         0.0000
     19 O6         -2.1434    1.2375    0.0000 OH        1 <0>         0.0000
     20 C14        -0.7145    1.2375    0.0000 CA        1 <0>         0.0000
     21 O7         -0.7145    2.0625    0.0000 OH        1 <0>         0.0000
     22 C15         0.0000    0.8250    0.0000 CA        1 <0>         0.0000
     23 H1          0.0000   -1.6500    0.0000 HO        1 <0>         0.0000
     24 H2          0.7145   -1.2375    0.0000 H1        1 <0>         0.0000
     25 H3          0.7145   -0.4125    0.0000 H1        1 <0>         0.0000
     26 H4          2.8579    0.0000    0.0000 HA        1 <0>         0.0000
     27 H5          4.2868    0.0000    0.0000 HO        1 <0>         0.0000
     28 H6          3.5724   -1.2375    0.0000 HA        1 <0>         0.0000
     29 H7          2.8579   -2.4750    0.0000 HO        1 <0>         0.0000
     30 H8         -0.7145   -0.4125    0.0000 HA        1 <0>         0.0000
     31 H9         -1.4289    0.0000    0.0000 HA        1 <0>         0.0000
     32 H10        -2.1434    1.2375    0.0000 HO        1 <0>         0.0000
     33 H11        -0.7145    2.0625    0.0000 HO        1 <0>         0.0000
     34 H12         0.0000    0.8250    0.0000 HA        1 <0>         0.0000
@<TRIPOS>BOND
     1    1    2 1
     2    2    3 1
     3    3    4 1
     4    4    5 1
     5    5    6 ar
     6    6    7 ar
     7    7    8 1
     8    7    9 ar
     9    9   10 ar
    10   10   11 1
    11   10   12 ar
    12    5   12 ar
    13   12   13 1
    14    2   13 1
    15   13   14 2
    16    3   15 1
    17   15   16 ar
    18   16   17 ar
    19   17   18 ar
    20   18   19 1
    21   18   20 ar
    22   20   21 1
    23   20   22 ar
    24   15   22 ar
    25    1   23 1
    26    2   24 1
    27    3   25 1
    28    6   26 1
    29    8   27 1
    30    9   28 1
    31   11   29 1
    32   16   30 1
    33   17   31 1
    34   19   32 1
    35   21   33 1
    36   22   34 1
@<TRIPOS>MOLECULE
*****
   21    21     0     0     0
SMALL
NO_CHARGES

@<TRIPOS>ATOM
      1 O1          2.1434    1.2375    0.0000 OH        1 <0>         0.0000
      2 C1          1.4289    0.8250    0.0000 CT        1 <0>         0.0000
      3 C2          1.4289    0.0000    0.0000 CT        1 <0>         0.0000
      4 O2          0.7145   -0.4125    0.0000 OS        1 <0>         0.0000
      5 C3          0.0000    0.0000    0.0000 CT        1 <0>         0.0000
      6 C4          0.0000    0.8250    0.0000 CT        1 <0>         0.0000
      7 C5          0.7145    1.2375    0.0000 CT        1 <0>         0.0000
      8 O3          0.7145    2.0625    0.0000 OH        1 <0>         0.0000
      9 C6         -0.7145   -0.4125    0.0000 C         1 <0>         0.0000
     10 O4         -0.7145   -1.2375    0.0000 OH        1 <0>         0.0000
     11 O5         -1.4289    0.0000    0.0000 O         1 <0>         0.0000
     12 H1          2.1434    1.2375    0.0000 HO        1 <0>         0.0000
     13 H2          1.4289    0.8250    0.0000 H1        1 <0>         0.0000
     14 H3          1.4289    0.0000    0.0000 H1        1 <0>         0.0000
     15 H4          1.4289    0.0000    0.0000 H1        1 <0>         0.0000
     16 H5          0.0000    0.0000    0.0000 H1        1 <0>         0.0000
     17 H6          0.0000    0.8250    0.0000 HC        1 <0>         0.0000
     18 H7          0.0000    0.8250    0.0000 HC        1 <0>         0.0000
     19 H8          0.7145    1.2375    0.0000 H1        1 <0>         0.0000
     20 H9          0.7145    2.0625    0.0000 HO        1 <0>         0.0000
     21 H10        -0.7145   -1.2375    0.0000 HO        1 <0>         0.0000
@<TRIPOS>BOND
     1    1    2 1
     2    2    3 1
     3    3    4 1
     4    4    5 1
     5    5    6 1
     6    6    7 1
     7    2    7 1
     8    7    8 1
     9    5    9 1
    10    9   10 1
    11    9   11 2
    12    1   12 1
    13    2   13 1
    14    3   14 1
    15    3   15 1
    16    5   16 1
    17    6   17 1
    18    6   18 1
    19    7   19 1
    20    8   20 1
    21   10   21 1
@<TRIPOS>MOLECULE
*****
   14    14     0     0     0
SMALL
NO_CHARGES

@<TRIPOS>ATOM
      1 O1          2.1434    1.2375    0.0000 OH        1 <0>         0.0000
      2 C1          1.4289    0.8250    0.0000 CA        1 <0>         0.0000
      3 C2          1.4289    0.0000    0.0000 CA        1 <0>         0.0000
      4 C3          0.7145   -0.4125    0.0000 CA        1 <0>         0.0000
      5 C4          0.0000    0.0000    0.0000 CA        1 <0>         0.0000
      6 C5          0.0000    0.8250    0.0000 CA        1 <0>         0.0000
      7 C6          0.7145    1.2375    0.0000 CA        1 <0>         0.0000
      8 O2          0.7145    2.0625    0.0000 OH        1 <0>         0.0000
      9 H1          2.1434    1.2375    0.0000 HO        1 <0>         0.0000
     10 H2          1.4289    0.0000    0.0000 HA        1 <0>         0.0000
     11 H3          0.7145   -0.4125    0.0000 HA        1 <0>         0.0000
     12 H4          0.0000    0.0000    0.0000 HA        1 <0>         0.0000
     13 H5          0.0000    0.8250    0.0000 HA        1 <0>         0.0000
     14 H6          0.7145    2.0625    0.0000 HO        1 <0>         0.0000
@<TRIPOS>BOND
     1    1    2 1
     2    2    3 ar
     3    3    4 ar
     4    4    5 ar
     5    5    6 ar
     6    6    7 ar
     7    2    7 ar
     8    7    8 1
     9    1    9 1
    10    3   10 1
    11    4   11 1
    12    5   12 1
    13    6   13 1
    14    8   14 1
@<TRIPOS>MOLECULE
*****
   87    89     0     0     0
SMALL
NO_CHARGES

@<TRIPOS>ATOM
      1 C1         -2.8173   -2.2538    0.0000 CT        1 <0>         0.0000
      2 C2         -2.8173   -3.0789    0.0000 CT        1 <0>         0.0000
      3 O1         -3.5319   -1.8414    0.0000 OS        1 <0>         0.0000
      4 C3         -3.5319   -3.4913    0.0000 CT        1 <0>         0.0000
      5 C4         -4.2463   -2.2538    0.0000 CT        1 <0>         0.0000
      6 C5         -4.2463   -3.0789    0.0000 CT        1 <0>         0.0000
      7 O2         -2.1029   -1.8414    0.0000 OS        1 <0>         0.0000
      8 O3         -2.1029   -3.4913    0.0000 OH        1 <0>         0.0000
      9 O4         -3.5319   -4.3163    0.0000 OH        1 <0>         0.0000
     10 O5         -4.9607   -3.4913    0.0000 OH        1 <0>         0.0000
     11 C6         -4.9607   -1.8414    0.0000 CT        1 <0>         0.0000
     12 O6         -5.6752   -2.2538    0.0000 OH        1 <0>         0.0000
     13 C7          0.0404   -0.6040    0.0000 CT        1 <0>         0.0000
     14 C8          0.0404   -1.4289    0.0000 CT        1 <0>         0.0000
     15 O7         -0.6741   -0.1915    0.0000 OS        1 <0>         0.0000
     16 C9         -0.6741   -1.8414    0.0000 CT        1 <0>         0.0000
     17 C10        -1.3884   -0.6040    0.0000 CT        1 <0>         0.0000
     18 C11        -1.3884   -1.4289    0.0000 CT        1 <0>         0.0000
     19 O8          0.7548   -0.1915    0.0000 OS        1 <0>         0.0000
     20 O9          0.7548   -1.8414    0.0000 OH        1 <0>         0.0000
     21 O10        -0.6741   -2.6664    0.0000 OH        1 <0>         0.0000
     22 C12        -2.1029   -0.1915    0.0000 CT        1 <0>         0.0000
     23 O11        -2.8173   -0.6040    0.0000 OH        1 <0>         0.0000
     24 C13         2.8982    1.0459    0.0000 CT        1 <0>         0.0000
     25 C14         2.8982    0.2210    0.0000 CT        1 <0>         0.0000
     26 O12         2.1838    1.4584    0.0000 OS        1 <0>         0.0000
     27 C15         2.1838   -0.1915    0.0000 CT        1 <0>         0.0000
     28 C16         1.4693    1.0459    0.0000 CT        1 <0>         0.0000
     29 C17         1.4693    0.2210    0.0000 CT        1 <0>         0.0000
     30 O13         3.6127    1.4584    0.0000 OS        1 <0>         0.0000
     31 O14         3.6127   -0.1915    0.0000 OH        1 <0>         0.0000
     32 O15         2.1837   -1.0165    0.0000 OH        1 <0>         0.0000
     33 C18         0.7548    1.4584    0.0000 CT        1 <0>         0.0000
     34 O16         0.0404    1.0459    0.0000 OH        1 <0>         0.0000
     35 C19         4.4377    2.8873    0.0000 CT        1 <0>         0.0000
     36 C20         4.8502    2.1730    0.0000 CT        1 <0>         0.0000
     37 C21         4.4377    1.4584    0.0000 CT        1 <0>         0.0000
     38 C22         4.8502    0.7439    0.0000 CT        1 <0>         0.0000
     39 C23         4.4377    0.0295    0.0000 CT        1 <0>         0.0000
     40 C24         4.8502    3.6019    0.0000 C         1 <0>         0.0000
     41 O17         5.6752    2.1730    0.0000 OH        1 <0>         0.0000
     42 O18         5.6752    0.7439    0.0000 OH        1 <0>         0.0000
     43 O19         4.8502   -0.6848    0.0000 OH        1 <0>         0.0000
     44 O20         4.4377    4.3163    0.0000 O         1 <0>         0.0000
     45 O21         3.6127    2.8873    0.0000 OH        1 <0>         0.0000
     46 H1         -2.8173   -2.2538    0.0000 H2        1 <0>         0.0000
     47 H2         -2.8173   -3.0789    0.0000 H1        1 <0>         0.0000
     48 H3         -3.5319   -3.4913    0.0000 H1        1 <0>         0.0000
     49 H4         -4.2463   -2.2538    0.0000 H1        1 <0>         0.0000
     50 H5         -4.2463   -3.0789    0.0000 H1        1 <0>         0.0000
     51 H6         -2.1029   -3.4913    0.0000 HO        1 <0>         0.0000
     52 H7         -3.5319   -4.3163    0.0000 HO        1 <0>         0.0000
     53 H8         -4.9607   -3.4913    0.0000 HO        1 <0>         0.0000
     54 H9         -4.9607   -1.8414    0.0000 H1        1 <0>         0.0000
     55 H10        -4.9607   -1.8414    0.0000 H1        1 <0>         0.0000
     56 H11        -5.6752   -2.2538    0.0000 HO        1 <0>         0.0000
     57 H12         0.0404   -0.6040    0.0000 H2        1 <0>         0.0000
     58 H13         0.0404   -1.4289    0.0000 H1        1 <0>         0.0000
     59 H14        -0.6741   -1.8414    0.0000 H1        1 <0>         0.0000
     60 H15        -1.3884   -0.6040    0.0000 H1        1 <0>         0.0000
     61 H16        -1.3884   -1.4289    0.0000 H1        1 <0>         0.0000
     62 H17         0.7548   -1.8414    0.0000 HO        1 <0>         0.0000
     63 H18        -0.6741   -2.6664    0.0000 HO        1 <0>         0.0000
     64 H19        -2.1029   -0.1915    0.0000 H1        1 <0>         0.0000
     65 H20        -2.1029   -0.1915    0.0000 H1        1 <0>         0.0000
     66 H21        -2.8173   -0.6040    0.0000 HO        1 <0>         0.0000
     67 H22         2.8982    1.0459    0.0000 H2        1 <0>         0.0000
     68 H23         2.8982    0.2210    0.0000 H1        1 <0>         0.0000
     69 H24         2.1838   -0.1915    0.0000 H1        1 <0>         0.0000
     70 H25         1.4693    1.0459    0.0000 H1        1 <0>         0.0000
     71 H26         1.4693    0.2210    0.0000 H1        1 <0>         0.0000
     72 H27         3.6127   -0.1915    0.0000 HO        1 <0>         0.0000
     73 H28         2.1837   -1.0165    0.0000 HO        1 <0>         0.0000
     74 H29         0.7548    1.4584    0.0000 H1        1 <0>         0.0000
     75 H30         0.7548    1.4584    0.0000 H1        1 <0>         0.0000
     76 H31         0.0404    1.0459    0.0000 HO        1 <0>         0.0000
     77 H32         4.4377    2.8873    0.0000 H1        1 <0>         0.0000
     78 H33         4.8502    2.1730    0.0000 H1        1 <0>         0.0000
     79 H34         4.4377    1.4584    0.0000 H1        1 <0>         0.0000
     80 H35         4.8502    0.7439    0.0000 H1        1 <0>         0.0000
     81 H36         4.4377    0.0295    0.0000 H1        1 <0>         0.0000
     82 H37         4.4377    0.0295    0.0000 H1        1 <0>         0.0000
     83 H38         4.8502    3.6019    0.0000 H4        1 <0>         0.0000
     84 H39         5.6752    2.1730    0.0000 HO        1 <0>         0.0000
     85 H40         5.6752    0.7439    0.0000 HO        1 <0>         0.0000
     86 H41         4.8502   -0.6848    0.0000 HO        1 <0>         0.0000
     87 H42         3.6127    2.8873    0.0000 HO        1 <0>         0.0000
@<TRIPOS>BOND
     1    1    2 1
     2    1    3 1
     3    2    4 1
     4    3    5 1
     5    4    6 1
     6    5    6 1
     7    1    7 1
     8    2    8 1
     9    4    9 1
    10    6   10 1
    11    5   11 1
    12   11   12 1
    13   13   14 1
    14   13   15 1
    15   14   16 1
    16   15   17 1
    17   16   18 1
    18   17   18 1
    19   13   19 1
    20   14   20 1
    21   16   21 1
    22    7   18 1
    23   17   22 1
    24   22   23 1
    25   24   25 1
    26   24   26 1
    27   25   27 1
    28   26   28 1
    29   27   29 1
    30   28   29 1
    31   24   30 1
    32   25   31 1
    33   27   32 1
    34   19   29 1
    35   28   33 1
    36   33   34 1
    37   35   36 1
    38   36   37 1
    39   37   38 1
    40   38   39 1
    41   35   40 1
    42   36   41 1
    43   30   37 1
    44   38   42 1
    45   39   43 1
    46   40   44 2
    47   35   45 1
    48    1   46 1
    49    2   47 1
    50    4   48 1
    51    5   49 1
    52    6   50 1
    53    8   51 1
    54    9   52 1
    55   10   53 1
    56   11   54 1
    57   11   55 1
    58   12   56 1
    59   13   57 1
    60   14   58 1
    61   16   59 1
    62   17   60 1
    63   18   61 1
    64   20   62 1
    65   21   63 1
    66   22   64 1
    67   22   65 1
    68   23   66 1
    69   24   67 1
    70   25   68 1
    71   27   69 1
    72   28   70 1
    73   29   71 1
    74   31   72 1
    75   32   73 1
    76   33   74 1
    77   33   75 1
    78   34   76 1
    79   35   77 1
    80   36   78 1
    81   37   79 1
    82   38   80 1
    83   39   81 1
    84   39   82 1
    85   40   83 1
    86   41   84 1
    87   42   85 1
    88   43   86 1
    89   45   87 1
@<TRIPOS>MOLECULE
*****
   16    15     0     0     0
SMALL
NO_CHARGES

@<TRIPOS>ATOM
      1 C1         -0.1914    0.7145    0.0000 CT        1 <0>         0.0000
      2 C2          0.5230    1.1270    0.0000 C         1 <0>         0.0000
      3 O1          0.5230    1.9520    0.0000 O         1 <0>         0.0000
      4 C3          1.2375    0.7145    0.0000 CT        1 <0>         0.0000
      5 C4          1.9520    1.1270    0.0000 CT        1 <0>         0.0000
      6 C5          2.6664    0.7145    0.0000 C         1 <0>         0.0000
      7 O2          3.3809    1.1270    0.0000 OH        1 <0>         0.0000
      8 O3          2.6664   -0.1105    0.0000 O         1 <0>         0.0000
      9 H1         -0.1914    0.7145    0.0000 HC        1 <0>         0.0000
     10 H2         -0.1914    0.7145    0.0000 HC        1 <0>         0.0000
     11 H3         -0.1914    0.7145    0.0000 HC        1 <0>         0.0000
     12 H4          1.2375    0.7145    0.0000 HC        1 <0>         0.0000
     13 H5          1.2375    0.7145    0.0000 HC        1 <0>         0.0000
     14 H6          1.9520    1.1270    0.0000 HC        1 <0>         0.0000
     15 H7          1.9520    1.1270    0.0000 HC        1 <0>         0.0000
     16 H8          3.3809    1.1270    0.0000 HO        1 <0>         0.0000
@<TRIPOS>BOND
     1    1    2 1
     2    2    3 2
     3    2    4 1
     4    4    5 1
     5    5    6 1
     6    6    7 1
     7    6    8 2
     8    1    9 1
     9    1   10 1
    10    1   11 1
    11    4   12 1
    12    4   13 1
    13    5   14 1
    14    5   15 1
    15    7   16 1
@<TRIPOS>MOLECULE
*****
   27    27     0     0     0
SMALL
NO_CHARGES

@<TRIPOS>ATOM
      1 O1         -0.7145    3.7125    0.0000 OH        1 <0>         0.0000
      2 C1          0.0000    3.3000    0.0000 C         1 <0>         0.0000
      3 O2          0.7145    3.7125    0.0000 O         1 <0>         0.0000
      4 C2          0.0000    2.4750    0.0000 CT        1 <0>         0.0000
      5 C3          0.7145    2.0625    0.0000 CT        1 <0>         0.0000
      6 C4          0.7145    1.2375    0.0000 CT        1 <0>         0.0000
      7 C5          1.4289    0.8250    0.0000 CT        1 <0>         0.0000
      8 C6          1.4289    0.0000    0.0000 CT        1 <0>         0.0000
      9 C7          0.7145   -0.4125    0.0000 CT        1 <0>         0.0000
     10 C8          0.0000    0.0000    0.0000 CT        1 <0>         0.0000
     11 C9          0.0000    0.8250    0.0000 CT        1 <0>         0.0000
     12 H1         -0.7145    3.7125    0.0000 HO        1 <0>         0.0000
     13 H2          0.0000    2.4750    0.0000 HC        1 <0>         0.0000
     14 H3          0.0000    2.4750    0.0000 HC        1 <0>         0.0000
     15 H4          0.7145    2.0625    0.0000 HC        1 <0>         0.0000
     16 H5          0.7145    2.0625    0.0000 HC        1 <0>         0.0000
     17 H6          0.7145    1.2375    0.0000 HC        1 <0>         0.0000
     18 H7          1.4289    0.8250    0.0000 HC        1 <0>         0.0000
     19 H8          1.4289    0.8250    0.0000 HC        1 <0>         0.0000
     20 H9          1.4289    0.0000    0.0000 HC        1 <0>         0.0000
     21 H10         1.4289    0.0000    0.0000 HC        1 <0>         0.0000
     22 H11         0.7145   -0.4125    0.0000 HC        1 <0>         0.0000
     23 H12         0.7145   -0.4125    0.0000 HC        1 <0>         0.0000
     24 H13         0.0000    0.0000    0.0000 HC        1 <0>         0.0000
     25 H14         0.0000    0.0000    0.0000 HC        1 <0>         0.0000
     26 H15         0.0000    0.8250    0.0000 HC        1 <0>         0.0000
     27 H16         0.0000    0.8250    0.0000 HC        1 <0>         0.0000
@<TRIPOS>BOND
     1    1    2 1
     2    2    3 2
     3    2    4 1
     4    4    5 1
     5    5    6 1
     6    6    7 1
     7    7    8 1
     8    8    9 1
     9    9   10 1
    10   10   11 1
    11    6   11 1
    12    1   12 1
    13    4   13 1
    14    4   14 1
    15    5   15 1
    16    5   16 1
    17    6   17 1
    18    7   18 1
    19    7   19 1
    20    8   20 1
    21    8   21 1
    22    9   22 1
    23    9   23 1
    24   10   24 1
    25   10   25 1
    26   11   26 1
    27   11   27 1
@<TRIPOS>MOLECULE
*****
   16    15     0     0     0
SMALL
NO_CHARGES

@<TRIPOS>ATOM
      1 C1         -0.1914    0.7146    0.0000 CT        1 <0>         0.0000
      2 C2          0.5230    1.1271    0.0000 CT        1 <0>         0.0000
      3 O1          1.2376    0.7146    0.0000 OS        1 <0>         0.0000
      4 C3          1.9521    1.1271    0.0000 CT        1 <0>         0.0000
      5 C4          2.6666    0.7146    0.0000 CT        1 <0>         0.0000
      6 O2          3.3812    1.1271    0.0000 OH        1 <0>         0.0000
      7 H1         -0.1914    0.7146    0.0000 HC        1 <0>         0.0000
      8 H2         -0.1914    0.7146    0.0000 HC        1 <0>         0.0000
      9 H3         -0.1914    0.7146    0.0000 HC        1 <0>         0.0000
     10 H4          0.5230    1.1271    0.0000 H1        1 <0>         0.0000
     11 H5          0.5230    1.1271    0.0000 H1        1 <0>         0.0000
     12 H6          1.9521    1.1271    0.0000 H1        1 <0>         0.0000
     13 H7          1.9521    1.1271    0.0000 H1        1 <0>         0.0000
     14 H8          2.6666    0.7146    0.0000 H1        1 <0>         0.0000
     15 H9          2.6666    0.7146    0.0000 H1        1 <0>         0.0000
     16 H10         3.3812    1.1271    0.0000 HO        1 <0>         0.0000
@<TRIPOS>BOND
     1    1    2 1
     2    2    3 1
     3    3    4 1
     4    4    5 1
     5    5    6 1
     6    1    7 1
     7    1    8 1
     8    1    9 1
     9    2   10 1
    10    2   11 1
    11    4   12 1
    12    4   13 1
    13    5   14 1
    14    5   15 1
    15    6   16 1
@<TRIPOS>MOLECULE
OSB
   26    26     0     0     0
SMALL
NO_CHARGES

@<TRIPOS>ATOM
      1 O1         -1.7771    1.6116    0.0000 OH        1 <0>         0.0000
      2 O2         -0.3481    1.6116    0.0000 O         1 <0>         0.0000
      3 C1         -1.0626    1.1991    0.0000 C         1 <0>         0.0000
      4 C2         -0.3481   -0.8634    0.0000 CA        1 <0>         0.0000
      5 C3         -1.0626   -1.2759    0.0000 CA        1 <0>         0.0000
      6 C4         -1.7771   -0.8634    0.0000 CA        1 <0>         0.0000
      7 C5         -1.7771   -0.0384    0.0000 CA        1 <0>         0.0000
      8 C6         -1.0626    0.3741    0.0000 CA        1 <0>         0.0000
      9 C7         -0.3481   -0.0384    0.0000 CA        1 <0>         0.0000
     10 C8          0.3663    0.3741    0.0000 C         1 <0>         0.0000
     11 C9          1.0808   -0.0384    0.0000 CT        1 <0>         0.0000
     12 O3          0.3663    1.1991    0.0000 O         1 <0>         0.0000
     13 C10         1.7953    0.3741    0.0000 CT        1 <0>         0.0000
     14 C11         2.5098   -0.0384    0.0000 C         1 <0>         0.0000
     15 O4          3.2242    0.3741    0.0000 O         1 <0>         0.0000
     16 O5          2.5098   -0.8634    0.0000 OH        1 <0>         0.0000
     17 H1         -1.7771    1.6116    0.0000 HO        1 <0>         0.0000
     18 H2         -0.3481   -0.8634    0.0000 HA        1 <0>         0.0000
     19 H3         -1.0626   -1.2759    0.0000 HA        1 <0>         0.0000
     20 H4         -1.7771   -0.8634    0.0000 HA        1 <0>         0.0000
     21 H5         -1.7771   -0.0384    0.0000 HA        1 <0>         0.0000
     22 H6          1.0808   -0.0384    0.0000 HC        1 <0>         0.0000
     23 H7          1.0808   -0.0384    0.0000 HC        1 <0>         0.0000
     24 H8          1.7953    0.3741    0.0000 HC        1 <0>         0.0000
     25 H9          1.7953    0.3741    0.0000 HC        1 <0>         0.0000
     26 H10         2.5098   -0.8634    0.0000 HO        1 <0>         0.0000
@<TRIPOS>BOND
     1    1    3 1
     2    2    3 2
     3    3    8 1
     4    4    5 ar
     5    4    9 ar
     6    5    6 ar
     7    6    7 ar
     8    7    8 ar
     9    8    9 ar
    10    9   10 1
    11   10   11 1
    12   10   12 2
    13   11   13 1
    14   13   14 1
    15   14   15 2
    16   14   16 1
    17    1   17 1
    18    4   18 1
    19    5   19 1
    20    6   20 1
    21    7   21 1
    22   11   22 1
    23   11   23 1
    24   13   24 1
    25   13   25 1
    26   16   26 1
@<TRIPOS>MOLECULE
*****
   74    74     0     0     0
SMALL
NO_CHARGES

@<TRIPOS>ATOM
      1 C1         10.7171   -1.2375    0.0000 CT        1 <0>         0.0000
      2 C2         10.7171   -0.4125    0.0000 CM        1 <0>         0.0000
      3 C3         11.4315    0.0000    0.0000 CT        1 <0>         0.0000
      4 O1         12.1460   -0.4125    0.0000 OH        1 <0>         0.0000
      5 C4         10.0026    0.0000    0.0000 CM        1 <0>         0.0000
      6 C5          9.2881   -0.4125    0.0000 CM        1 <0>         0.0000
      7 C6          8.5737    0.0000    0.0000 CM        1 <0>         0.0000
      8 C7          7.8592   -0.4125    0.0000 CM        1 <0>         0.0000
      9 C8          7.8592   -1.2375    0.0000 CT        1 <0>         0.0000
     10 C9          7.1447    0.0000    0.0000 CM        1 <0>         0.0000
     11 C10         7.1447    0.8250    0.0000 CM        1 <0>         0.0000
     12 C11         6.4302    1.2375    0.0000 CM        1 <0>         0.0000
     13 C12         6.4302    2.0625    0.0000 CM        1 <0>         0.0000
     14 C13         5.7158    2.4750    0.0000 CM        1 <0>         0.0000
     15 C14         5.7158    3.3000    0.0000 CT        1 <0>         0.0000
     16 C15         5.0013    2.0625    0.0000 CM        1 <0>         0.0000
     17 C16         4.2868    2.4750    0.0000 CM        1 <0>         0.0000
     18 C17         3.5724    2.0625    0.0000 CM        1 <0>         0.0000
     19 C18         2.8579    2.4750    0.0000 CM        1 <0>         0.0000
     20 C19         2.8579    3.3000    0.0000 CT        1 <0>         0.0000
     21 C20         2.1434    2.0625    0.0000 CM        1 <0>         0.0000
     22 C21         2.1434    1.2375    0.0000 CM        1 <0>         0.0000
     23 C22         1.4289    0.8250    0.0000 CM        1 <0>         0.0000
     24 C23         1.4289    0.0000    0.0000 CM        1 <0>         0.0000
     25 C24         2.1434   -0.4125    0.0000 CT        1 <0>         0.0000
     26 C25         0.7145   -0.4125    0.0000 CT        1 <0>         0.0000
     27 C26         0.0000    0.0000    0.0000 CT        1 <0>         0.0000
     28 O2         -0.7145   -0.4125    0.0000 OH        1 <0>         0.0000
     29 C27         0.0000    0.8250    0.0000 CT        1 <0>         0.0000
     30 C28         0.7145    1.2375    0.0000 CT        1 <0>         0.0000
     31 C29         0.3272    1.9659    0.0000 CT        1 <0>         0.0000
     32 C30         1.1018    1.9659    0.0000 CT        1 <0>         0.0000
     33 H1         10.7171   -1.2375    0.0000 HC        1 <0>         0.0000
     34 H2         10.7171   -1.2375    0.0000 HC        1 <0>         0.0000
     35 H3         10.7171   -1.2375    0.0000 HC        1 <0>         0.0000
     36 H4         11.4315    0.0000    0.0000 H1        1 <0>         0.0000
     37 H5         11.4315    0.0000    0.0000 H1        1 <0>         0.0000
     38 H6         12.1460   -0.4125    0.0000 HO        1 <0>         0.0000
     39 H7         10.0026    0.0000    0.0000 HA        1 <0>         0.0000
     40 H8          9.2881   -0.4125    0.0000 HA        1 <0>         0.0000
     41 H9          8.5737    0.0000    0.0000 HA        1 <0>         0.0000
     42 H10         7.8592   -1.2375    0.0000 HC        1 <0>         0.0000
     43 H11         7.8592   -1.2375    0.0000 HC        1 <0>         0.0000
     44 H12         7.8592   -1.2375    0.0000 HC        1 <0>         0.0000
     45 H13         7.1447    0.0000    0.0000 HA        1 <0>         0.0000
     46 H14         7.1447    0.8250    0.0000 HA        1 <0>         0.0000
     47 H15         6.4302    1.2375    0.0000 HA        1 <0>         0.0000
     48 H16         6.4302    2.0625    0.0000 HA        1 <0>         0.0000
     49 H17         5.7158    3.3000    0.0000 HC        1 <0>         0.0000
     50 H18         5.7158    3.3000    0.0000 HC        1 <0>         0.0000
     51 H19         5.7158    3.3000    0.0000 HC        1 <0>         0.0000
     52 H20         5.0013    2.0625    0.0000 HA        1 <0>         0.0000
     53 H21         4.2868    2.4750    0.0000 HA        1 <0>         0.0000
     54 H22         3.5724    2.0625    0.0000 HA        1 <0>         0.0000
     55 H23         2.8579    3.3000    0.0000 HC        1 <0>         0.0000
     56 H24         2.8579    3.3000    0.0000 HC        1 <0>         0.0000
     57 H25         2.8579    3.3000    0.0000 HC        1 <0>         0.0000
     58 H26         2.1434    2.0625    0.0000 HA        1 <0>         0.0000
     59 H27         2.1434    1.2375    0.0000 HA        1 <0>         0.0000
     60 H28         2.1434   -0.4125    0.0000 HC        1 <0>         0.0000
     61 H29         2.1434   -0.4125    0.0000 HC        1 <0>         0.0000
     62 H30         2.1434   -0.4125    0.0000 HC        1 <0>         0.0000
     63 H31         0.7145   -0.4125    0.0000 HC        1 <0>         0.0000
     64 H32         0.7145   -0.4125    0.0000 HC        1 <0>         0.0000
     65 H33         0.0000    0.0000    0.0000 H1        1 <0>         0.0000
     66 H34        -0.7145   -0.4125    0.0000 HO        1 <0>         0.0000
     67 H35         0.0000    0.8250    0.0000 HC        1 <0>         0.0000
     68 H36         0.0000    0.8250    0.0000 HC        1 <0>         0.0000
     69 H37         0.3272    1.9659    0.0000 HC        1 <0>         0.0000
     70 H38         0.3272    1.9659    0.0000 HC        1 <0>         0.0000
     71 H39         0.3272    1.9659    0.0000 HC        1 <0>         0.0000
     72 H40         1.1018    1.9659    0.0000 HC        1 <0>         0.0000
     73 H41         1.1018    1.9659    0.0000 HC        1 <0>         0.0000
     74 H42         1.1018    1.9659    0.0000 HC        1 <0>         0.0000
@<TRIPOS>BOND
     1    1    2 1
     2    2    3 1
     3    3    4 1
     4    2    5 2
     5    5    6 1
     6    6    7 2
     7    7    8 1
     8    8    9 1
     9    8   10 2
    10   10   11 1
    11   11   12 2
    12   12   13 1
    13   13   14 2
    14   14   15 1
    15   14   16 1
    16   16   17 2
    17   17   18 1
    18   18   19 2
    19   19   20 1
    20   19   21 1
    21   21   22 2
    22   22   23 1
    23   23   24 2
    24   24   25 1
    25   24   26 1
    26   26   27 1
    27   27   28 1
    28   27   29 1
    29   29   30 1
    30   23   30 1
    31   30   31 1
    32   30   32 1
    33    1   33 1
    34    1   34 1
    35    1   35 1
    36    3   36 1
    37    3   37 1
    38    4   38 1
    39    5   39 1
    40    6   40 1
    41    7   41 1
    42    9   42 1
    43    9   43 1
    44    9   44 1
    45   10   45 1
    46   11   46 1
    47   12   47 1
    48   13   48 1
    49   15   49 1
    50   15   50 1
    51   15   51 1
    52   16   52 1
    53   17   53 1
    54   18   54 1
    55   20   55 1
    56   20   56 1
    57   20   57 1
    58   21   58 1
    59   22   59 1
    60   25   60 1
    61   25   61 1
    62   25   62 1
    63   26   63 1
    64   26   64 1
    65   27   65 1
    66   28   66 1
    67   29   67 1
    68   29   68 1
    69   31   69 1
    70   31   70 1
    71   31   71 1
    72   32   72 1
    73   32   73 1
    74   32   74 1
@<TRIPOS>MOLECULE
4OX
   31    30     0     0     0
SMALL
NO_CHARGES

@<TRIPOS>ATOM
      1 C1         -1.0704   -0.1530    0.0000 CT        1 <0>         0.0000
      2 C2         -1.7848    0.2595    0.0000 CT        1 <0>         0.0000
      3 C3         -2.4993   -0.1530    0.0000 CT        1 <0>         0.0000
      4 C4         -3.2138    0.2595    0.0000 C         1 <0>         0.0000
      5 O1         -3.9282   -0.1530    0.0000 OH        1 <0>         0.0000
      6 O2         -3.2138    1.0845    0.0000 O         1 <0>         0.0000
      7 O3          3.9309    0.2595    0.0000 O         1 <0>         0.0000
      8 C5          3.2165   -0.1530    0.0000 C         1 <0>         0.0000
      9 O4          3.2165   -0.9780    0.0000 OH        1 <0>         0.0000
     10 C6          2.5020    0.2595    0.0000 CT        1 <0>         0.0000
     11 C7          1.7875   -0.1530    0.0000 CT        1 <0>         0.0000
     12 C8          1.0731    0.2595    0.0000 C         1 <0>         0.0000
     13 C9          0.3586   -0.1530    0.0000 CT        1 <0>         0.0000
     14 C10        -0.3559    0.2595    0.0000 CT        1 <0>         0.0000
     15 O5          1.0731    1.0845    0.0000 O         1 <0>         0.0000
     16 H1         -1.0704   -0.1530    0.0000 HC        1 <0>         0.0000
     17 H2         -1.0704   -0.1530    0.0000 HC        1 <0>         0.0000
     18 H3         -1.7848    0.2595    0.0000 HC        1 <0>         0.0000
     19 H4         -1.7848    0.2595    0.0000 HC        1 <0>         0.0000
     20 H5         -2.4993   -0.1530    0.0000 HC        1 <0>         0.0000
     21 H6         -2.4993   -0.1530    0.0000 HC        1 <0>         0.0000
     22 H7         -3.9282   -0.1530    0.0000 HO        1 <0>         0.0000
     23 H8          3.2165   -0.9780    0.0000 HO        1 <0>         0.0000
     24 H9          2.5020    0.2595    0.0000 HC        1 <0>         0.0000
     25 H10         2.5020    0.2595    0.0000 HC        1 <0>         0.0000
     26 H11         1.7875   -0.1530    0.0000 HC        1 <0>         0.0000
     27 H12         1.7875   -0.1530    0.0000 HC        1 <0>         0.0000
     28 H13         0.3586   -0.1530    0.0000 HC        1 <0>         0.0000
     29 H14         0.3586   -0.1530    0.0000 HC        1 <0>         0.0000
     30 H15        -0.3559    0.2595    0.0000 HC        1 <0>         0.0000
     31 H16        -0.3559    0.2595    0.0000 HC        1 <0>         0.0000
@<TRIPOS>BOND
     1    1    2 1
     2    1   14 1
     3    2    3 1
     4    3    4 1
     5    4    5 1
     6    4    6 2
     7    7    8 2
     8    8    9 1
     9    8   10 1
    10   10   11 1
    11   11   12 1
    12   12   13 1
    13   12   15 2
    14   13   14 1
    15    1   16 1
    16    1   17 1
    17    2   18 1
    18    2   19 1
    19    3   20 1
    20    3   21 1
    21    5   22 1
    22    9   23 1
    23   10   24 1
    24   10   25 1
    25   11   26 1
    26   11   27 1
    27   13   28 1
    28   13   29 1
    29   14   30 1
    30   14   31 1
@<TRIPOS>MOLECULE
*****
   31    30     0     0     0
SMALL
NO_CHARGES

@<TRIPOS>ATOM
      1 C1          4.6184    2.6664    0.0000 CT        1 <0>         0.0000
      2 C2          4.6184    1.8414    0.0000 CT        1 <0>         0.0000
      3 C3          3.9039    1.4289    0.0000 CT        1 <0>         0.0000
      4 C4          3.1895    1.8414    0.0000 CT        1 <0>         0.0000
      5 C5          2.4750    1.4289    0.0000 CT        1 <0>         0.0000
      6 C6          1.7605    1.8414    0.0000 CT        1 <0>         0.0000
      7 C7          1.0461    2.2539    0.0000 CT        1 <0>         0.0000
      8 C8          1.3480    1.1270    0.0000 CT        1 <0>         0.0000
      9 O1          2.1730    2.5559    0.0000 OH        1 <0>         0.0000
     10 C9          5.3329    1.4289    0.0000 CM        1 <0>         0.0000
     11 C10         6.0474    1.8414    0.0000 CM        1 <0>         0.0000
     12 H1          4.6184    2.6664    0.0000 HC        1 <0>         0.0000
     13 H2          4.6184    2.6664    0.0000 HC        1 <0>         0.0000
     14 H3          4.6184    2.6664    0.0000 HC        1 <0>         0.0000
     15 H4          4.6184    1.8414    0.0000 HC        1 <0>         0.0000
     16 H5          3.9039    1.4289    0.0000 HC        1 <0>         0.0000
     17 H6          3.9039    1.4289    0.0000 HC        1 <0>         0.0000
     18 H7          3.1895    1.8414    0.0000 HC        1 <0>         0.0000
     19 H8          3.1895    1.8414    0.0000 HC        1 <0>         0.0000
     20 H9          2.4750    1.4289    0.0000 HC        1 <0>         0.0000
     21 H10         2.4750    1.4289    0.0000 HC        1 <0>         0.0000
     22 H11         1.0461    2.2539    0.0000 HC        1 <0>         0.0000
     23 H12         1.0461    2.2539    0.0000 HC        1 <0>         0.0000
     24 H13         1.0461    2.2539    0.0000 HC        1 <0>         0.0000
     25 H14         1.3480    1.1270    0.0000 HC        1 <0>         0.0000
     26 H15         1.3480    1.1270    0.0000 HC        1 <0>         0.0000
     27 H16         1.3480    1.1270    0.0000 HC        1 <0>         0.0000
     28 H17         2.1730    2.5559    0.0000 HO        1 <0>         0.0000
     29 H18         5.3329    1.4289    0.0000 HA        1 <0>         0.0000
     30 H19         6.0474    1.8414    0.0000 HA        1 <0>         0.0000
     31 H20         6.0474    1.8414    0.0000 HA        1 <0>         0.0000
@<TRIPOS>BOND
     1    1    2 1
     2    2    3 1
     3    3    4 1
     4    4    5 1
     5    5    6 1
     6    6    7 1
     7    6    8 1
     8    6    9 1
     9    2   10 1
    10   10   11 2
    11    1   12 1
    12    1   13 1
    13    1   14 1
    14    2   15 1
    15    3   16 1
    16    3   17 1
    17    4   18 1
    18    4   19 1
    19    5   20 1
    20    5   21 1
    21    7   22 1
    22    7   23 1
    23    7   24 1
    24    8   25 1
    25    8   26 1
    26    8   27 1
    27    9   28 1
    28   10   29 1
    29   11   30 1
    30   11   31 1
@<TRIPOS>MOLECULE
*****
   17    17     0     0     0
SMALL
NO_CHARGES

@<TRIPOS>ATOM
      1 O1          0.0000    3.3000    0.0000 OH        1 <0>         0.0000
      2 C1          0.0000    2.4750    0.0000 C         1 <0>         0.0000
      3 O2         -0.7145    2.0625    0.0000 O         1 <0>         0.0000
      4 C2          0.7145    2.0625    0.0000 C         1 <0>         0.0000
      5 O3          1.4289    2.4750    0.0000 O         1 <0>         0.0000
      6 C3          0.7145    1.2375    0.0000 CA        1 <0>         0.0000
      7 C4          1.4289    0.8250    0.0000 CA        1 <0>         0.0000
      8 C5          1.4289    0.0000    0.0000 CA        1 <0>         0.0000
      9 C6          0.7145   -0.4125    0.0000 CA        1 <0>         0.0000
     10 C7          0.0000    0.0000    0.0000 CA        1 <0>         0.0000
     11 C8          0.0000    0.8250    0.0000 CA        1 <0>         0.0000
     12 H1          0.0000    3.3000    0.0000 HO        1 <0>         0.0000
     13 H2          1.4289    0.8250    0.0000 HA        1 <0>         0.0000
     14 H3          1.4289    0.0000    0.0000 HA        1 <0>         0.0000
     15 H4          0.7145   -0.4125    0.0000 HA        1 <0>         0.0000
     16 H5          0.0000    0.0000    0.0000 HA        1 <0>         0.0000
     17 H6          0.0000    0.8250    0.0000 HA        1 <0>         0.0000
@<TRIPOS>BOND
     1    1    2 1
     2    2    3 2
     3    2    4 1
     4    4    5 2
     5    4    6 1
     6    6    7 ar
     7    7    8 ar
     8    8    9 ar
     9    9   10 ar
    10   10   11 ar
    11    6   11 ar
    12    1   12 1
    13    7   13 1
    14    8   14 1
    15    9   15 1
    16   10   16 1
    17   11   17 1
@<TRIPOS>MOLECULE
*****
   19    19     0     0     0
SMALL
NO_CHARGES

@<TRIPOS>ATOM
      1 O1          1.4289    2.4750    0.0000 OH        1 <0>         0.0000
      2 C1          0.7145    2.0625    0.0000 CT        1 <0>         0.0000
      3 C2          0.0000    2.4750    0.0000 C         1 <0>         0.0000
      4 O2          0.0000    3.3000    0.0000 OH        1 <0>         0.0000
      5 O3         -0.7145    2.0625    0.0000 O         1 <0>         0.0000
      6 C3          0.7145    1.2375    0.0000 CA        1 <0>         0.0000
      7 C4          1.4289    0.8250    0.0000 CA        1 <0>         0.0000
      8 C5          1.4289    0.0000    0.0000 CA        1 <0>         0.0000
      9 C6          0.7145   -0.4125    0.0000 CA        1 <0>         0.0000
     10 C7          0.0000    0.0000    0.0000 CA        1 <0>         0.0000
     11 C8          0.0000    0.8250    0.0000 CA        1 <0>         0.0000
     12 H1          1.4289    2.4750    0.0000 HO        1 <0>         0.0000
     13 H2          0.7145    2.0625    0.0000 H1        1 <0>         0.0000
     14 H3          0.0000    3.3000    0.0000 HO        1 <0>         0.0000
     15 H4          1.4289    0.8250    0.0000 HA        1 <0>         0.0000
     16 H5          1.4289    0.0000    0.0000 HA        1 <0>         0.0000
     17 H6          0.7145   -0.4125    0.0000 HA        1 <0>         0.0000
     18 H7          0.0000    0.0000    0.0000 HA        1 <0>         0.0000
     19 H8          0.0000    0.8250    0.0000 HA        1 <0>         0.0000
@<TRIPOS>BOND
     1    1    2 1
     2    2    3 1
     3    3    4 1
     4    3    5 2
     5    2    6 1
     6    6    7 ar
     7    7    8 ar
     8    8    9 ar
     9    9   10 ar
    10   10   11 ar
    11    6   11 ar
    12    1   12 1
    13    2   13 1
    14    4   14 1
    15    7   15 1
    16    8   16 1
    17    9   17 1
    18   10   18 1
    19   11   19 1
@<TRIPOS>MOLECULE
*****
   18    17     0     0     0
SMALL
NO_CHARGES

@<TRIPOS>ATOM
      1 C1          2.4750   -1.4289    0.0000 CT        1 <0>         0.0000
      2 C2          2.0625   -0.7145    0.0000 CT        1 <0>         0.0000
      3 C3          2.4750    0.0000    0.0000 CT        1 <0>         0.0000
      4 C4          1.2375   -0.7145    0.0000 CT        1 <0>         0.0000
      5 C5          0.8250    0.0000    0.0000 CT        1 <0>         0.0000
      6 O1          0.0000    0.0000    0.0000 OH        1 <0>         0.0000
      7 H1          2.4750   -1.4289    0.0000 HC        1 <0>         0.0000
      8 H2          2.4750   -1.4289    0.0000 HC        1 <0>         0.0000
      9 H3          2.4750   -1.4289    0.0000 HC        1 <0>         0.0000
     10 H4          2.0625   -0.7145    0.0000 HC        1 <0>         0.0000
     11 H5          2.4750    0.0000    0.0000 HC        1 <0>         0.0000
     12 H6          2.4750    0.0000    0.0000 HC        1 <0>         0.0000
     13 H7          2.4750    0.0000    0.0000 HC        1 <0>         0.0000
     14 H8          1.2375   -0.7145    0.0000 HC        1 <0>         0.0000
     15 H9          1.2375   -0.7145    0.0000 HC        1 <0>         0.0000
     16 H10         0.8250    0.0000    0.0000 H1        1 <0>         0.0000
     17 H11         0.8250    0.0000    0.0000 H1        1 <0>         0.0000
     18 H12         0.0000    0.0000    0.0000 HO        1 <0>         0.0000
@<TRIPOS>BOND
     1    1    2 1
     2    2    3 1
     3    2    4 1
     4    4    5 1
     5    5    6 1
     6    1    7 1
     7    1    8 1
     8    1    9 1
     9    2   10 1
    10    3   11 1
    11    3   12 1
    12    3   13 1
    13    4   14 1
    14    4   15 1
    15    5   16 1
    16    5   17 1
    17    6   18 1
@<TRIPOS>MOLECULE
*****
   70    73     0     0     0
SMALL
NO_CHARGES

@<TRIPOS>ATOM
      1 C1         12.1370   -9.5610    0.0000 CT        1 <0>         0.0000
      2 C2         11.4226   -9.9735    0.0000 CT        1 <0>         0.0000
      3 C3         11.4226  -10.7986    0.0000 CT        1 <0>         0.0000
      4 C4         12.1370  -11.2111    0.0000 CT        1 <0>         0.0000
      5 C5         12.8515  -10.7986    0.0000 CM        1 <0>         0.0000
      6 C6         12.8515   -9.9735    0.0000 CM        1 <0>         0.0000
      7 C7         13.5660   -9.5610    0.0000 CT        1 <0>         0.0000
      8 C8         13.5660  -11.2111    0.0000 CM        1 <0>         0.0000
      9 C9         14.2804  -10.7986    0.0000 CM        1 <0>         0.0000
     10 C10        14.2804   -9.9735    0.0000 CM        1 <0>         0.0000
     11 C11        14.2804   -8.3235    0.0000 CT        1 <0>         0.0000
     12 C12        13.5660   -8.7360    0.0000 CT        1 <0>         0.0000
     13 C13        14.9949   -9.5610    0.0000 CT        1 <0>         0.0000
     14 C14        14.9949   -8.7360    0.0000 CT        1 <0>         0.0000
     15 C15        15.7795   -8.4811    0.0000 CT        1 <0>         0.0000
     16 C16        15.7795   -9.8159    0.0000 CT        1 <0>         0.0000
     17 C17        16.2644   -9.1485    0.0000 CT        1 <0>         0.0000
     18 C18        15.7795   -7.6561    0.0000 CT        1 <0>         0.0000
     19 C19        16.4940   -7.2436    0.0000 CM        1 <0>         0.0000
     20 C20        17.2085   -7.6561    0.0000 CM        1 <0>         0.0000
     21 C21        17.9229   -7.2436    0.0000 CT        1 <0>         0.0000
     22 O1         17.9229   -6.4186    0.0000 OH        1 <0>         0.0000
     23 C22        18.6374   -7.6561    0.0000 CJ        1 <0>         0.0000
     24 C23        19.0499   -8.3705    0.0000 CJ        1 <0>         0.0000
     25 C24        19.4624   -7.6561    0.0000 CJ        1 <0>         0.0000
     26 O2         10.7081  -11.2111    0.0000 OH        1 <0>         0.0000
     27 C25        14.9949   -7.9110    0.0000 CT        1 <0>         0.0000
     28 O3         12.1370   -8.7360    0.0000 OH        1 <0>         0.0000
     29 H1         14.9949  -10.3860    0.0000 HC        1 <0>         0.0000
     30 H2         16.4940   -8.0686    0.0000 HC        1 <0>         0.0000
     31 C26        15.0651   -7.2436    0.0000 CT        1 <0>         0.0000
     32 C27        12.8515   -9.1485    0.0000 CM        1 <0>         0.0000
     33 H3         12.1370   -9.5610    0.0000 H1        1 <0>         0.0000
     34 H4         11.4226   -9.9735    0.0000 HC        1 <0>         0.0000
     35 H5         11.4226   -9.9735    0.0000 HC        1 <0>         0.0000
     36 H6         11.4226  -10.7986    0.0000 H1        1 <0>         0.0000
     37 H7         12.1370  -11.2111    0.0000 HC        1 <0>         0.0000
     38 H8         12.1370  -11.2111    0.0000 HC        1 <0>         0.0000
     39 H9         13.5660   -9.5610    0.0000 HC        1 <0>         0.0000
     40 H10        13.5660   -9.5610    0.0000 HC        1 <0>         0.0000
     41 H11        13.5660  -11.2111    0.0000 HA        1 <0>         0.0000
     42 H12        14.2804  -10.7986    0.0000 HA        1 <0>         0.0000
     43 H13        14.2804   -8.3235    0.0000 HC        1 <0>         0.0000
     44 H14        14.2804   -8.3235    0.0000 HC        1 <0>         0.0000
     45 H15        13.5660   -8.7360    0.0000 HC        1 <0>         0.0000
     46 H16        13.5660   -8.7360    0.0000 HC        1 <0>         0.0000
     47 H17        15.7795   -9.8159    0.0000 HC        1 <0>         0.0000
     48 H18        15.7795   -9.8159    0.0000 HC        1 <0>         0.0000
     49 H19        16.2644   -9.1485    0.0000 HC        1 <0>         0.0000
     50 H20        16.2644   -9.1485    0.0000 HC        1 <0>         0.0000
     51 H21        15.7795   -7.6561    0.0000 HC        1 <0>         0.0000
     52 H22        16.4940   -7.2436    0.0000 HA        1 <0>         0.0000
     53 H23        17.2085   -7.6561    0.0000 HA        1 <0>         0.0000
     54 H24        17.9229   -7.2436    0.0000 H1        1 <0>         0.0000
     55 H25        17.9229   -6.4186    0.0000 HO        1 <0>         0.0000
     56 H26        18.6374   -7.6561    0.0000 HC        1 <0>         0.0000
     57 H27        19.0499   -8.3705    0.0000 HC        1 <0>         0.0000
     58 H28        19.0499   -8.3705    0.0000 HC        1 <0>         0.0000
     59 H29        19.4624   -7.6561    0.0000 HC        1 <0>         0.0000
     60 H30        19.4624   -7.6561    0.0000 HC        1 <0>         0.0000
     61 H31        10.7081  -11.2111    0.0000 HO        1 <0>         0.0000
     62 H32        14.9949   -7.9110    0.0000 HC        1 <0>         0.0000
     63 H33        14.9949   -7.9110    0.0000 HC        1 <0>         0.0000
     64 H34        14.9949   -7.9110    0.0000 HC        1 <0>         0.0000
     65 H35        12.1370   -8.7360    0.0000 HO        1 <0>         0.0000
     66 H36        15.0651   -7.2436    0.0000 HC        1 <0>         0.0000
     67 H37        15.0651   -7.2436    0.0000 HC        1 <0>         0.0000
     68 H38        15.0651   -7.2436    0.0000 HC        1 <0>         0.0000
     69 H39        12.8515   -9.1485    0.0000 HA        1 <0>         0.0000
     70 H40        12.8515   -9.1485    0.0000 HA        1 <0>         0.0000
@<TRIPOS>BOND
     1    1    2 1
     2    2    3 1
     3    3    4 1
     4    4    5 1
     5    1    6 1
     6    5    6 1
     7    5    8 2
     8    8    9 1
     9    9   10 2
    10   10   13 1
    11    7   10 1
    12    7   12 1
    13   11   12 1
    14   11   14 1
    15   14   15 1
    16   13   14 1
    17   13   16 1
    18   16   17 1
    19   15   17 1
    20   15   18 1
    21   18   19 1
    22   19   20 2
    23   20   21 1
    24   21   22 1
    25   21   23 1
    26   23   24 1
    27   23   25 1
    28   24   25 1
    29    3   26 1
    30   14   27 1
    31    1   28 1
    32   13   29 1
    33   15   30 1
    34   18   31 1
    35    6   32 2
    36    1   33 1
    37    2   34 1
    38    2   35 1
    39    3   36 1
    40    4   37 1
    41    4   38 1
    42    7   39 1
    43    7   40 1
    44    8   41 1
    45    9   42 1
    46   11   43 1
    47   11   44 1
    48   12   45 1
    49   12   46 1
    50   16   47 1
    51   16   48 1
    52   17   49 1
    53   17   50 1
    54   18   51 1
    55   19   52 1
    56   20   53 1
    57   21   54 1
    58   22   55 1
    59   23   56 1
    60   24   57 1
    61   24   58 1
    62   25   59 1
    63   25   60 1
    64   26   61 1
    65   27   62 1
    66   27   63 1
    67   27   64 1
    68   28   65 1
    69   31   66 1
    70   31   67 1
    71   31   68 1
    72   32   69 1
    73   32   70 1
@<TRIPOS>MOLECULE
*****
   54    54     0     0     0
SMALL
NO_CHARGES

@<TRIPOS>ATOM
      1 C1         -3.1255   -4.8136    0.0000 CT        1 <0>         0.0000
      2 C2         -2.4110   -4.4011    0.0000 CT        1 <0>         0.0000
      3 C3         -1.6966   -4.8136    0.0000 CT        1 <0>         0.0000
      4 C4         -0.9821   -4.4011    0.0000 CT        1 <0>         0.0000
      5 C5         -0.2676   -4.8136    0.0000 CT        1 <0>         0.0000
      6 C6          0.4468   -4.4011    0.0000 CT        1 <0>         0.0000
      7 O1          0.4468   -3.5761    0.0000 OH        1 <0>         0.0000
      8 C7          1.1613   -4.8136    0.0000 CM        1 <0>         0.0000
      9 C8          1.8758   -4.4011    0.0000 CM        1 <0>         0.0000
     10 C9          2.5902   -4.8136    0.0000 CM        1 <0>         0.0000
     11 C10         3.3439   -4.4781    0.0000 CM        1 <0>         0.0000
     12 C11         3.5155   -3.6711    0.0000 CT        1 <0>         0.0000
     13 C12         2.9024   -3.1191    0.0000 CM        1 <0>         0.0000
     14 C13         3.0739   -2.3121    0.0000 CM        1 <0>         0.0000
     15 C14         2.4608   -1.7601    0.0000 CT        1 <0>         0.0000
     16 C15         2.6323   -0.9531    0.0000 CT        1 <0>         0.0000
     17 C16         2.0192   -0.4011    0.0000 CT        1 <0>         0.0000
     18 C17         2.1907    0.4059    0.0000 C         1 <0>         0.0000
     19 O2          1.5777    0.9579    0.0000 OH        1 <0>         0.0000
     20 O3          2.9754    0.6608    0.0000 O         1 <0>         0.0000
     21 C18         3.8960   -5.0912    0.0000 C         1 <0>         0.0000
     22 O4          4.7164   -5.0049    0.0000 O         1 <0>         0.0000
     23 C19         3.4835   -5.8056    0.0000 CT        1 <0>         0.0000
     24 C20         2.6765   -5.6341    0.0000 CT        1 <0>         0.0000
     25 H1         -3.1255   -4.8136    0.0000 HC        1 <0>         0.0000
     26 H2         -3.1255   -4.8136    0.0000 HC        1 <0>         0.0000
     27 H3         -3.1255   -4.8136    0.0000 HC        1 <0>         0.0000
     28 H4         -2.4110   -4.4011    0.0000 HC        1 <0>         0.0000
     29 H5         -2.4110   -4.4011    0.0000 HC        1 <0>         0.0000
     30 H6         -1.6966   -4.8136    0.0000 HC        1 <0>         0.0000
     31 H7         -1.6966   -4.8136    0.0000 HC        1 <0>         0.0000
     32 H8         -0.9821   -4.4011    0.0000 HC        1 <0>         0.0000
     33 H9         -0.9821   -4.4011    0.0000 HC        1 <0>         0.0000
     34 H10        -0.2676   -4.8136    0.0000 HC        1 <0>         0.0000
     35 H11        -0.2676   -4.8136    0.0000 HC        1 <0>         0.0000
     36 H12         0.4468   -4.4011    0.0000 H1        1 <0>         0.0000
     37 H13         0.4468   -3.5761    0.0000 HO        1 <0>         0.0000
     38 H14         1.1613   -4.8136    0.0000 HA        1 <0>         0.0000
     39 H15         1.8758   -4.4011    0.0000 HA        1 <0>         0.0000
     40 H16         3.5155   -3.6711    0.0000 HC        1 <0>         0.0000
     41 H17         3.5155   -3.6711    0.0000 HC        1 <0>         0.0000
     42 H18         2.9024   -3.1191    0.0000 HA        1 <0>         0.0000
     43 H19         3.0739   -2.3121    0.0000 HA        1 <0>         0.0000
     44 H20         2.4608   -1.7601    0.0000 HC        1 <0>         0.0000
     45 H21         2.4608   -1.7601    0.0000 HC        1 <0>         0.0000
     46 H22         2.6323   -0.9531    0.0000 HC        1 <0>         0.0000
     47 H23         2.6323   -0.9531    0.0000 HC        1 <0>         0.0000
     48 H24         2.0192   -0.4011    0.0000 HC        1 <0>         0.0000
     49 H25         2.0192   -0.4011    0.0000 HC        1 <0>         0.0000
     50 H26         1.5777    0.9579    0.0000 HO        1 <0>         0.0000
     51 H27         3.4835   -5.8056    0.0000 HC        1 <0>         0.0000
     52 H28         3.4835   -5.8056    0.0000 HC        1 <0>         0.0000
     53 H29         2.6765   -5.6341    0.0000 HC        1 <0>         0.0000
     54 H30         2.6765   -5.6341    0.0000 HC        1 <0>         0.0000
@<TRIPOS>BOND
     1    1    2 1
     2    2    3 1
     3    3    4 1
     4    4    5 1
     5    5    6 1
     6    6    7 1
     7    6    8 1
     8    8    9 2
     9    9   10 1
    10   10   11 2
    11   11   12 1
    12   12   13 1
    13   13   14 2
    14   14   15 1
    15   15   16 1
    16   16   17 1
    17   17   18 1
    18   18   19 1
    19   18   20 2
    20   11   21 1
    21   21   22 2
    22   21   23 1
    23   23   24 1
    24   10   24 1
    25    1   25 1
    26    1   26 1
    27    1   27 1
    28    2   28 1
    29    2   29 1
    30    3   30 1
    31    3   31 1
    32    4   32 1
    33    4   33 1
    34    5   34 1
    35    5   35 1
    36    6   36 1
    37    7   37 1
    38    8   38 1
    39    9   39 1
    40   12   40 1
    41   12   41 1
    42   13   42 1
    43   14   43 1
    44   15   44 1
    45   15   45 1
    46   16   46 1
    47   16   47 1
    48   17   48 1
    49   17   49 1
    50   19   50 1
    51   23   51 1
    52   23   52 1
    53   24   53 1
    54   24   54 1
@<TRIPOS>MOLECULE
*****
   20    20     0     0     0
SMALL
NO_CHARGES

@<TRIPOS>ATOM
      1 O1          2.1434    1.2375    0.0000 OH        1 <0>         0.0000
      2 C1          1.4289    0.8250    0.0000 CT        1 <0>         0.0000
      3 O2          1.4289    0.0000    0.0000 OS        1 <0>         0.0000
      4 C2          0.7145   -0.4125    0.0000 CM        1 <0>         0.0000
      5 C3          0.7145   -1.2375    0.0000 C         1 <0>         0.0000
      6 O3          0.0000   -1.6500    0.0000 OH        1 <0>         0.0000
      7 O4          1.4289   -1.6500    0.0000 O         1 <0>         0.0000
      8 C4          0.0000    0.0000    0.0000 CM        1 <0>         0.0000
      9 C5          0.0000    0.8250    0.0000 CT        1 <0>         0.0000
     10 O5         -0.7145    1.2375    0.0000 OH        1 <0>         0.0000
     11 C6          0.7145    1.2375    0.0000 CT        1 <0>         0.0000
     12 O6          0.7145    2.0625    0.0000 OH        1 <0>         0.0000
     13 H1          2.1434    1.2375    0.0000 HO        1 <0>         0.0000
     14 H2          1.4289    0.8250    0.0000 H2        1 <0>         0.0000
     15 H3          0.0000   -1.6500    0.0000 HO        1 <0>         0.0000
     16 H4          0.0000    0.0000    0.0000 HA        1 <0>         0.0000
     17 H5          0.0000    0.8250    0.0000 H1        1 <0>         0.0000
     18 H6         -0.7145    1.2375    0.0000 HO        1 <0>         0.0000
     19 H7          0.7145    1.2375    0.0000 H1        1 <0>         0.0000
     20 H8          0.7145    2.0625    0.0000 HO        1 <0>         0.0000
@<TRIPOS>BOND
     1    1    2 1
     2    2    3 1
     3    3    4 1
     4    4    5 1
     5    5    6 1
     6    5    7 2
     7    4    8 2
     8    8    9 1
     9    9   10 1
    10    9   11 1
    11    2   11 1
    12   11   12 1
    13    1   13 1
    14    2   14 1
    15    6   15 1
    16    8   16 1
    17    9   17 1
    18   10   18 1
    19   11   19 1
    20   12   20 1
@<TRIPOS>MOLECULE
*****
   12    11     0     0     0
SMALL
NO_CHARGES

@<TRIPOS>ATOM
      1 C1          1.2375    0.7145    0.0000 CT        1 <0>         0.0000
      2 C2          0.8250    0.0000    0.0000 CT        1 <0>         0.0000
      3 C3          1.2375   -0.7145    0.0000 CT        1 <0>         0.0000
      4 O1          0.0000    0.0000    0.0000 OH        1 <0>         0.0000
      5 H1          1.2375    0.7145    0.0000 HC        1 <0>         0.0000
      6 H2          1.2375    0.7145    0.0000 HC        1 <0>         0.0000
      7 H3          1.2375    0.7145    0.0000 HC        1 <0>         0.0000
      8 H4          0.8250    0.0000    0.0000 H1        1 <0>         0.0000
      9 H5          1.2375   -0.7145    0.0000 HC        1 <0>         0.0000
     10 H6          1.2375   -0.7145    0.0000 HC        1 <0>         0.0000
     11 H7          1.2375   -0.7145    0.0000 HC        1 <0>         0.0000
     12 H8          0.0000    0.0000    0.0000 HO        1 <0>         0.0000
@<TRIPOS>BOND
     1    1    2 1
     2    2    3 1
     3    2    4 1
     4    1    5 1
     5    1    6 1
     6    1    7 1
     7    2    8 1
     8    3    9 1
     9    3   10 1
    10    3   11 1
    11    4   12 1
@<TRIPOS>MOLECULE
*****
   24    23     0     0     0
SMALL
NO_CHARGES

@<TRIPOS>ATOM
      1 O1          2.2836    2.1434    0.0000 OH        1 <0>         0.0000
      2 C1          2.9980    2.5559    0.0000 CT        1 <0>         0.0000
      3 C2          3.7125    2.1434    0.0000 CT        1 <0>         0.0000
      4 O2          4.4270    2.5559    0.0000 OS        1 <0>         0.0000
      5 C3          5.1414    2.1434    0.0000 CT        1 <0>         0.0000
      6 C4          5.8559    2.5559    0.0000 CT        1 <0>         0.0000
      7 O3          6.5704    2.1434    0.0000 OS        1 <0>         0.0000
      8 C5          7.2849    2.5559    0.0000 CT        1 <0>         0.0000
      9 C6          7.9993    2.1434    0.0000 CT        1 <0>         0.0000
     10 O4          8.7138    2.5559    0.0000 OH        1 <0>         0.0000
     11 H1          2.2836    2.1434    0.0000 HO        1 <0>         0.0000
     12 H2          2.9980    2.5559    0.0000 H1        1 <0>         0.0000
     13 H3          2.9980    2.5559    0.0000 H1        1 <0>         0.0000
     14 H4          3.7125    2.1434    0.0000 H1        1 <0>         0.0000
     15 H5          3.7125    2.1434    0.0000 H1        1 <0>         0.0000
     16 H6          5.1414    2.1434    0.0000 H1        1 <0>         0.0000
     17 H7          5.1414    2.1434    0.0000 H1        1 <0>         0.0000
     18 H8          5.8559    2.5559    0.0000 H1        1 <0>         0.0000
     19 H9          5.8559    2.5559    0.0000 H1        1 <0>         0.0000
     20 H10         7.2849    2.5559    0.0000 H1        1 <0>         0.0000
     21 H11         7.2849    2.5559    0.0000 H1        1 <0>         0.0000
     22 H12         7.9993    2.1434    0.0000 H1        1 <0>         0.0000
     23 H13         7.9993    2.1434    0.0000 H1        1 <0>         0.0000
     24 H14         8.7138    2.5559    0.0000 HO        1 <0>         0.0000
@<TRIPOS>BOND
     1    1    2 1
     2    2    3 1
     3    3    4 1
     4    4    5 1
     5    5    6 1
     6    6    7 1
     7    7    8 1
     8    8    9 1
     9    9   10 1
    10    1   11 1
    11    2   12 1
    12    2   13 1
    13    3   14 1
    14    3   15 1
    15    5   16 1
    16    5   17 1
    17    6   18 1
    18    6   19 1
    19    8   20 1
    20    8   21 1
    21    9   22 1
    22    9   23 1
    23   10   24 1
@<TRIPOS>MOLECULE
*****
   91    95     0     0     0
SMALL
NO_CHARGES

@<TRIPOS>ATOM
      1 C1          0.4452    4.4144    0.0000 CT        1 <0>         0.0000
      2 C2         -0.4733    3.8841    0.0000 CT        1 <0>         0.0000
      3 C3          5.6645    4.3164    0.0000 CT        1 <0>         0.0000
      4 C4          5.9337    1.3606    0.0000 CT        1 <0>         0.0000
      5 C5          1.9520    2.1730    0.0000 CT        1 <0>         0.0000
      6 C6          3.1895    4.3164    0.0000 CT        1 <0>         0.0000
      7 C7          2.6907    4.4225    0.0000 CT        1 <0>         0.0000
      8 C8         -2.5855    4.3164    0.0000 CT        1 <0>         0.0000
      9 C9         -2.1730    3.6020    0.0000 CT        1 <0>         0.0000
     10 C10         1.5395    4.3164    0.0000 CT        1 <0>         0.0000
     11 C11         0.3020    2.1730    0.0000 CT        1 <0>         0.0000
     12 C12         1.1270    2.1730    0.0000 CT        1 <0>         0.0000
     13 C13         2.3645    4.3164    0.0000 CT        1 <0>         0.0000
     14 C14         6.0770    3.6020    0.0000 CT        1 <0>         0.0000
     15 C15         6.4895    2.8875    0.0000 CT        1 <0>         0.0000
     16 C16         4.8395    4.3164    0.0000 CT        1 <0>         0.0000
     17 C17         4.0145    4.3164    0.0000 CT        1 <0>         0.0000
     18 C18         3.6020    2.1730    0.0000 CM        1 <0>         0.0000
     19 C19         5.2520    2.1730    0.0000 CT        1 <0>         0.0000
     20 C20         4.0145    2.8875    0.0000 CM        1 <0>         0.0000
     21 C21         4.8395    2.8875    0.0000 CT        1 <0>         0.0000
     22 C22         2.7770    2.1730    0.0000 C         1 <0>         0.0000
     23 C23         1.1270    3.6020    0.0000 CT        1 <0>         0.0000
     24 C24        -0.1105    2.8875    0.0000 CT        1 <0>         0.0000
     25 C25        -3.4105    4.3164    0.0000 C         1 <0>         0.0000
     26 C26        -1.3480    3.6020    0.0000 C         1 <0>         0.0000
     27 C27         2.3645    2.8875    0.0000 CT        1 <0>         0.0000
     28 C28         6.8522    1.8909    0.0000 C         1 <0>         0.0000
     29 C29         0.3020    3.6020    0.0000 CT        1 <0>         0.0000
     30 C30         5.2520    3.6020    0.0000 CT        1 <0>         0.0000
     31 C31         6.0770    2.1730    0.0000 CT        1 <0>         0.0000
     32 C32         1.5395    2.8875    0.0000 CT        1 <0>         0.0000
     33 C33         3.6020    3.6020    0.0000 CT        1 <0>         0.0000
     34 C34         2.7770    3.6020    0.0000 CT        1 <0>         0.0000
     35 O1          2.3645    1.4586    0.0000 O         1 <0>         0.0000
     36 O2         -3.8230    5.0309    0.0000 O         1 <0>         0.0000
     37 O3         -3.8230    3.6020    0.0000 OH        1 <0>         0.0000
     38 O4         -0.9355    4.3164    0.0000 O         1 <0>         0.0000
     39 O5          7.4842    2.4212    0.0000 O         1 <0>         0.0000
     40 O6          6.9955    1.0784    0.0000 OH        1 <0>         0.0000
     41 O7         -0.9355    2.8875    0.0000 OS        1 <0>         0.0000
     42 H1          4.4270    2.1730    0.0000 HC        1 <0>         0.0000
     43 H2          0.7145    4.3164    0.0000 HC        1 <0>         0.0000
     44 H3         -0.5230    2.1730    0.0000 H1        1 <0>         0.0000
     45 H4          2.2212    2.0750    0.0000 HC        1 <0>         0.0000
     46 H5          0.4452    4.4144    0.0000 HC        1 <0>         0.0000
     47 H6          0.4452    4.4144    0.0000 HC        1 <0>         0.0000
     48 H7          0.4452    4.4144    0.0000 HC        1 <0>         0.0000
     49 H8         -0.4733    3.8841    0.0000 HC        1 <0>         0.0000
     50 H9         -0.4733    3.8841    0.0000 HC        1 <0>         0.0000
     51 H10        -0.4733    3.8841    0.0000 HC        1 <0>         0.0000
     52 H11         5.6645    4.3164    0.0000 HC        1 <0>         0.0000
     53 H12         5.6645    4.3164    0.0000 HC        1 <0>         0.0000
     54 H13         5.6645    4.3164    0.0000 HC        1 <0>         0.0000
     55 H14         5.9337    1.3606    0.0000 HC        1 <0>         0.0000
     56 H15         5.9337    1.3606    0.0000 HC        1 <0>         0.0000
     57 H16         5.9337    1.3606    0.0000 HC        1 <0>         0.0000
     58 H17         1.9520    2.1730    0.0000 HC        1 <0>         0.0000
     59 H18         1.9520    2.1730    0.0000 HC        1 <0>         0.0000
     60 H19         1.9520    2.1730    0.0000 HC        1 <0>         0.0000
     61 H20         3.1895    4.3164    0.0000 HC        1 <0>         0.0000
     62 H21         3.1895    4.3164    0.0000 HC        1 <0>         0.0000
     63 H22         3.1895    4.3164    0.0000 HC        1 <0>         0.0000
     64 H23         2.6907    4.4225    0.0000 HC        1 <0>         0.0000
     65 H24         2.6907    4.4225    0.0000 HC        1 <0>         0.0000
     66 H25         2.6907    4.4225    0.0000 HC        1 <0>         0.0000
     67 H26        -2.5855    4.3164    0.0000 HC        1 <0>         0.0000
     68 H27        -2.5855    4.3164    0.0000 HC        1 <0>         0.0000
     69 H28        -2.1730    3.6020    0.0000 HC        1 <0>         0.0000
     70 H29        -2.1730    3.6020    0.0000 HC        1 <0>         0.0000
     71 H30         1.5395    4.3164    0.0000 HC        1 <0>         0.0000
     72 H31         1.5395    4.3164    0.0000 HC        1 <0>         0.0000
     73 H32         0.3020    2.1730    0.0000 HC        1 <0>         0.0000
     74 H33         0.3020    2.1730    0.0000 HC        1 <0>         0.0000
     75 H34         1.1270    2.1730    0.0000 HC        1 <0>         0.0000
     76 H35         1.1270    2.1730    0.0000 HC        1 <0>         0.0000
     77 H36         2.3645    4.3164    0.0000 HC        1 <0>         0.0000
     78 H37         2.3645    4.3164    0.0000 HC        1 <0>         0.0000
     79 H38         6.0770    3.6020    0.0000 HC        1 <0>         0.0000
     80 H39         6.0770    3.6020    0.0000 HC        1 <0>         0.0000
     81 H40         6.4895    2.8875    0.0000 HC        1 <0>         0.0000
     82 H41         6.4895    2.8875    0.0000 HC        1 <0>         0.0000
     83 H42         4.8395    4.3164    0.0000 HC        1 <0>         0.0000
     84 H43         4.8395    4.3164    0.0000 HC        1 <0>         0.0000
     85 H44         4.0145    4.3164    0.0000 HC        1 <0>         0.0000
     86 H45         4.0145    4.3164    0.0000 HC        1 <0>         0.0000
     87 H46         3.6020    2.1730    0.0000 HA        1 <0>         0.0000
     88 H47         5.2520    2.1730    0.0000 HC        1 <0>         0.0000
     89 H48         5.2520    2.1730    0.0000 HC        1 <0>         0.0000
     90 H49        -3.8230    3.6020    0.0000 HO        1 <0>         0.0000
     91 H50         6.9955    1.0784    0.0000 HO        1 <0>         0.0000
@<TRIPOS>BOND
     1    8    9 1
     2   11   12 1
     3   10   13 1
     4   14   15 1
     5   16   17 1
     6   18   20 2
     7   19   21 1
     8   20   21 1
     9   18   22 1
    10   10   23 1
    11   11   24 1
    12    8   25 1
    13    9   26 1
    14   22   27 1
    15    1   29 1
    16    2   29 1
    17   23   29 1
    18   24   29 1
    19    3   30 1
    20   14   30 1
    21   16   30 1
    22   21   30 1
    23    4   31 1
    24   15   31 1
    25   19   31 1
    26   28   31 1
    27    5   32 1
    28   12   32 1
    29   23   32 1
    30   27   32 1
    31    6   33 1
    32   17   33 1
    33   20   33 1
    34    7   34 1
    35   13   34 1
    36   27   34 1
    37   33   34 1
    38   22   35 2
    39   25   36 2
    40   25   37 1
    41   26   38 2
    42   28   39 2
    43   28   40 1
    44   24   41 1
    45   26   41 1
    46   21   42 1
    47   23   43 1
    48   24   44 1
    49   27   45 1
    50    1   46 1
    51    1   47 1
    52    1   48 1
    53    2   49 1
    54    2   50 1
    55    2   51 1
    56    3   52 1
    57    3   53 1
    58    3   54 1
    59    4   55 1
    60    4   56 1
    61    4   57 1
    62    5   58 1
    63    5   59 1
    64    5   60 1
    65    6   61 1
    66    6   62 1
    67    6   63 1
    68    7   64 1
    69    7   65 1
    70    7   66 1
    71    8   67 1
    72    8   68 1
    73    9   69 1
    74    9   70 1
    75   10   71 1
    76   10   72 1
    77   11   73 1
    78   11   74 1
    79   12   75 1
    80   12   76 1
    81   13   77 1
    82   13   78 1
    83   14   79 1
    84   14   80 1
    85   15   81 1
    86   15   82 1
    87   16   83 1
    88   16   84 1
    89   17   85 1
    90   17   86 1
    91   18   87 1
    92   19   88 1
    93   19   89 1
    94   37   90 1
    95   40   91 1
@<TRIPOS>MOLECULE
[NO NAME]
   48    51     0     0     0
SMALL
NO_CHARGES

Created with ChemWriter - http://chemwriter.com
@<TRIPOS>ATOM
      1 O1          7.1378    1.9798    0.0000 OH        1 <0>         0.0000
      2 O2          1.6652    0.1517    0.0000 OS        1 <0>         0.0000
      3 O3          1.6519   -1.5738    0.0000 OH        1 <0>         0.0000
      4 C1          6.1009    0.9442    0.0000 CT        1 <0>         0.0000
      5 C2          6.1009    0.1193    0.0000 CT        1 <0>         0.0000
      6 C3          5.3864   -0.2932    0.0000 CT        1 <0>         0.0000
      7 C4          4.6720    0.1193    0.0000 CT        1 <0>         0.0000
      8 C5          6.8815    1.1956    0.0000 CT        1 <0>         0.0000
      9 C6          5.3864    1.3567    0.0000 CT        1 <0>         0.0000
     10 C7          6.8815   -0.1321    0.0000 CT        1 <0>         0.0000
     11 C8          4.6720    0.9442    0.0000 CT        1 <0>         0.0000
     12 C9          7.3629    0.5318    0.0000 CT        1 <0>         0.0000
     13 C10         5.3997   -1.1524    0.0000 CT        1 <0>         0.0000
     14 C11         6.1009    1.7692    0.0000 CT        1 <0>         0.0000
     15 C12         3.9213   -0.2988    0.0000 CA        1 <0>         0.0000
     16 C13         4.6589   -1.5878    0.0000 CT        1 <0>         0.0000
     17 C14         3.9147   -1.1581    0.0000 CA        1 <0>         0.0000
     18 C15         3.1567    0.1665    0.0000 CA        1 <0>         0.0000
     19 C16         3.1430   -1.6116    0.0000 CA        1 <0>         0.0000
     20 C17         2.3748   -0.2690    0.0000 CA        1 <0>         0.0000
     21 C18         2.3678   -1.1641    0.0000 CA        1 <0>         0.0000
     22 C19         1.6747    0.9766    0.0000 CT        1 <0>         0.0000
     23 H1          7.1378    1.9798    0.0000 HO        1 <0>         0.0000
     24 H2          1.6519   -1.5738    0.0000 HO        1 <0>         0.0000
     25 H3          6.1009    0.1193    0.0000 HC        1 <0>         0.0000
     26 H4          5.3864   -0.2932    0.0000 HC        1 <0>         0.0000
     27 H5          4.6720    0.1193    0.0000 HC        1 <0>         0.0000
     28 H6          6.8815    1.1956    0.0000 H1        1 <0>         0.0000
     29 H7          5.3864    1.3567    0.0000 HC        1 <0>         0.0000
     30 H8          5.3864    1.3567    0.0000 HC        1 <0>         0.0000
     31 H9          6.8815   -0.1321    0.0000 HC        1 <0>         0.0000
     32 H10         6.8815   -0.1321    0.0000 HC        1 <0>         0.0000
     33 H11         4.6720    0.9442    0.0000 HC        1 <0>         0.0000
     34 H12         4.6720    0.9442    0.0000 HC        1 <0>         0.0000
     35 H13         7.3629    0.5318    0.0000 HC        1 <0>         0.0000
     36 H14         7.3629    0.5318    0.0000 HC        1 <0>         0.0000
     37 H15         5.3997   -1.1524    0.0000 HC        1 <0>         0.0000
     38 H16         5.3997   -1.1524    0.0000 HC        1 <0>         0.0000
     39 H17         6.1009    1.7692    0.0000 HC        1 <0>         0.0000
     40 H18         6.1009    1.7692    0.0000 HC        1 <0>         0.0000
     41 H19         6.1009    1.7692    0.0000 HC        1 <0>         0.0000
     42 H20         4.6589   -1.5878    0.0000 HC        1 <0>         0.0000
     43 H21         4.6589   -1.5878    0.0000 HC        1 <0>         0.0000
     44 H22         3.1567    0.1665    0.0000 HA        1 <0>         0.0000
     45 H23         3.1430   -1.6116    0.0000 HA        1 <0>         0.0000
     46 H24         1.6747    0.9766    0.0000 H1        1 <0>         0.0000
     47 H25         1.6747    0.9766    0.0000 H1        1 <0>         0.0000
     48 H26         1.6747    0.9766    0.0000 H1        1 <0>         0.0000
@<TRIPOS>BOND
     1    1    8 1
     2    2   20 1
     3    2   22 1
     4    3   21 1
     5    4    5 1
     6    4    8 1
     7    4    9 1
     8    4   14 1
     9    5    6 1
    10    5   10 1
    11    6    7 1
    12    6   13 1
    13    7   11 1
    14    7   15 1
    15    8   12 1
    16    9   11 1
    17   10   12 1
    18   13   16 1
    19   15   17 ar
    20   15   18 ar
    21   16   17 1
    22   17   19 ar
    23   18   20 ar
    24   19   21 ar
    25   20   21 ar
    26    1   23 1
    27    3   24 1
    28    5   25 1
    29    6   26 1
    30    7   27 1
    31    8   28 1
    32    9   29 1
    33    9   30 1
    34   10   31 1
    35   10   32 1
    36   11   33 1
    37   11   34 1
    38   12   35 1
    39   12   36 1
    40   13   37 1
    41   13   38 1
    42   14   39 1
    43   14   40 1
    44   14   41 1
    45   16   42 1
    46   16   43 1
    47   18   44 1
    48   19   45 1
    49   22   46 1
    50   22   47 1
    51   22   48 1
@<TRIPOS>MOLECULE
6JZ
   43    42     0     0     0
SMALL
NO_CHARGES

@<TRIPOS>ATOM
      1 C1         -5.7162    0.2262    0.0000 CT        1 <0>         0.0000
      2 C2         -5.0017   -0.1863    0.0000 CT        1 <0>         0.0000
      3 O1         -4.2871    0.2262    0.0000 OS        1 <0>         0.0000
      4 C3         -3.5727   -0.1863    0.0000 CT        1 <0>         0.0000
      5 C4         -2.8581    0.2262    0.0000 CT        1 <0>         0.0000
      6 O2         -2.1436   -0.1863    0.0000 OS        1 <0>         0.0000
      7 C5         -1.4291    0.2262    0.0000 CT        1 <0>         0.0000
      8 C6         -0.7146   -0.1863    0.0000 CT        1 <0>         0.0000
      9 O3          0.0000    0.2262    0.0000 OS        1 <0>         0.0000
     10 C7          0.7146   -0.1863    0.0000 CT        1 <0>         0.0000
     11 C8          1.4290    0.2262    0.0000 CT        1 <0>         0.0000
     12 O4          2.1436   -0.1863    0.0000 OS        1 <0>         0.0000
     13 C9          2.8581    0.2262    0.0000 CT        1 <0>         0.0000
     14 C10         3.5726   -0.1863    0.0000 CT        1 <0>         0.0000
     15 O5          4.2871    0.2262    0.0000 OS        1 <0>         0.0000
     16 C11         5.0017   -0.1863    0.0000 CT        1 <0>         0.0000
     17 C12         5.7162    0.2262    0.0000 CT        1 <0>         0.0000
     18 H1         -5.7162    0.2262    0.0000 HC        1 <0>         0.0000
     19 H2         -5.7162    0.2262    0.0000 HC        1 <0>         0.0000
     20 H3         -5.7162    0.2262    0.0000 HC        1 <0>         0.0000
     21 H4         -5.0017   -0.1863    0.0000 H1        1 <0>         0.0000
     22 H5         -5.0017   -0.1863    0.0000 H1        1 <0>         0.0000
     23 H6         -3.5727   -0.1863    0.0000 H1        1 <0>         0.0000
     24 H7         -3.5727   -0.1863    0.0000 H1        1 <0>         0.0000
     25 H8         -2.8581    0.2262    0.0000 H1        1 <0>         0.0000
     26 H9         -2.8581    0.2262    0.0000 H1        1 <0>         0.0000
     27 H10        -1.4291    0.2262    0.0000 H1        1 <0>         0.0000
     28 H11        -1.4291    0.2262    0.0000 H1        1 <0>         0.0000
     29 H12        -0.7146   -0.1863    0.0000 H1        1 <0>         0.0000
     30 H13        -0.7146   -0.1863    0.0000 H1        1 <0>         0.0000
     31 H14         0.7146   -0.1863    0.0000 H1        1 <0>         0.0000
     32 H15         0.7146   -0.1863    0.0000 H1        1 <0>         0.0000
     33 H16         1.4290    0.2262    0.0000 H1        1 <0>         0.0000
     34 H17         1.4290    0.2262    0.0000 H1        1 <0>         0.0000
     35 H18         2.8581    0.2262    0.0000 H1        1 <0>         0.0000
     36 H19         2.8581    0.2262    0.0000 H1        1 <0>         0.0000
     37 H20         3.5726   -0.1863    0.0000 H1        1 <0>         0.0000
     38 H21         3.5726   -0.1863    0.0000 H1        1 <0>         0.0000
     39 H22         5.0017   -0.1863    0.0000 H1        1 <0>         0.0000
     40 H23         5.0017   -0.1863    0.0000 H1        1 <0>         0.0000
     41 H24         5.7162    0.2262    0.0000 HC        1 <0>         0.0000
     42 H25         5.7162    0.2262    0.0000 HC        1 <0>         0.0000
     43 H26         5.7162    0.2262    0.0000 HC        1 <0>         0.0000
@<TRIPOS>BOND
     1    1    2 1
     2    2    3 1
     3    3    4 1
     4    4    5 1
     5    5    6 1
     6    6    7 1
     7    7    8 1
     8    8    9 1
     9    9   10 1
    10   10   11 1
    11   11   12 1
    12   12   13 1
    13   13   14 1
    14   14   15 1
    15   15   16 1
    16   16   17 1
    17    1   18 1
    18    1   19 1
    19    1   20 1
    20    2   21 1
    21    2   22 1
    22    4   23 1
    23    4   24 1
    24    5   25 1
    25    5   26 1
    26    7   27 1
    27    7   28 1
    28    8   29 1
    29    8   30 1
    30   10   31 1
    31   10   32 1
    32   11   33 1
    33   11   34 1
    34   13   35 1
    35   13   36 1
    36   14   37 1
    37   14   38 1
    38   16   39 1
    39   16   40 1
    40   17   41 1
    41   17   42 1
    42   17   43 1
@<TRIPOS>MOLECULE
*****
   68    69     0     0     0
SMALL
NO_CHARGES

@<TRIPOS>ATOM
      1 C1         -2.8579   -4.9500    0.0000 CT        1 <0>         0.0000
      2 C2         -2.1434   -4.5375    0.0000 CT        1 <0>         0.0000
      3 C3         -1.4289   -4.9500    0.0000 CT        1 <0>         0.0000
      4 C4         -0.7145   -4.5375    0.0000 CT        1 <0>         0.0000
      5 C5          0.0000   -4.9500    0.0000 CT        1 <0>         0.0000
      6 C6          0.7145   -4.5375    0.0000 CT        1 <0>         0.0000
      7 C7          1.4289   -4.9500    0.0000 CT        1 <0>         0.0000
      8 C8          2.1434   -4.5375    0.0000 C         1 <0>         0.0000
      9 O1          2.1434   -3.7125    0.0000 O         1 <0>         0.0000
     10 O2          2.8579   -4.9500    0.0000 OS        1 <0>         0.0000
     11 C9          3.5724   -4.5375    0.0000 CT        1 <0>         0.0000
     12 C10         3.5724   -3.7125    0.0000 CT        1 <0>         0.0000
     13 O3          2.8579   -3.3000    0.0000 OH        1 <0>         0.0000
     14 C11         4.2868   -3.3000    0.0000 CT        1 <0>         0.0000
     15 C12         4.2868   -2.4750    0.0000 CT        1 <0>         0.0000
     16 O4          5.0013   -2.0625    0.0000 OH        1 <0>         0.0000
     17 O5          5.0013   -3.7125    0.0000 OS        1 <0>         0.0000
     18 C13         5.0013   -4.5375    0.0000 CT        1 <0>         0.0000
     19 O6          5.7158   -4.9500    0.0000 OS        1 <0>         0.0000
     20 C14         6.4302   -4.5375    0.0000 CT        1 <0>         0.0000
     21 C15         6.7658   -5.2912    0.0000 CT        1 <0>         0.0000
     22 O7          7.5863   -5.3774    0.0000 OH        1 <0>         0.0000
     23 O8          5.9453   -3.8701    0.0000 OS        1 <0>         0.0000
     24 C16         6.4302   -3.2026    0.0000 CT        1 <0>         0.0000
     25 C17         6.1753   -2.4180    0.0000 CT        1 <0>         0.0000
     26 O9          6.7273   -1.8049    0.0000 OH        1 <0>         0.0000
     27 C18         7.2149   -3.4576    0.0000 CT        1 <0>         0.0000
     28 O10         7.8823   -2.9726    0.0000 OH        1 <0>         0.0000
     29 C19         7.2149   -4.2826    0.0000 CT        1 <0>         0.0000
     30 O11         7.8823   -4.7675    0.0000 OH        1 <0>         0.0000
     31 C20         4.2868   -4.9500    0.0000 CT        1 <0>         0.0000
     32 O12         4.2868   -5.7750    0.0000 OH        1 <0>         0.0000
     33 H1         -2.8579   -4.9500    0.0000 HC        1 <0>         0.0000
     34 H2         -2.8579   -4.9500    0.0000 HC        1 <0>         0.0000
     35 H3         -2.8579   -4.9500    0.0000 HC        1 <0>         0.0000
     36 H4         -2.1434   -4.5375    0.0000 HC        1 <0>         0.0000
     37 H5         -2.1434   -4.5375    0.0000 HC        1 <0>         0.0000
     38 H6         -1.4289   -4.9500    0.0000 HC        1 <0>         0.0000
     39 H7         -1.4289   -4.9500    0.0000 HC        1 <0>         0.0000
     40 H8         -0.7145   -4.5375    0.0000 HC        1 <0>         0.0000
     41 H9         -0.7145   -4.5375    0.0000 HC        1 <0>         0.0000
     42 H10         0.0000   -4.9500    0.0000 HC        1 <0>         0.0000
     43 H11         0.0000   -4.9500    0.0000 HC        1 <0>         0.0000
     44 H12         0.7145   -4.5375    0.0000 HC        1 <0>         0.0000
     45 H13         0.7145   -4.5375    0.0000 HC        1 <0>         0.0000
     46 H14         1.4289   -4.9500    0.0000 HC        1 <0>         0.0000
     47 H15         1.4289   -4.9500    0.0000 HC        1 <0>         0.0000
     48 H16         3.5724   -4.5375    0.0000 H1        1 <0>         0.0000
     49 H17         3.5724   -3.7125    0.0000 H1        1 <0>         0.0000
     50 H18         2.8579   -3.3000    0.0000 HO        1 <0>         0.0000
     51 H19         4.2868   -3.3000    0.0000 H1        1 <0>         0.0000
     52 H20         4.2868   -2.4750    0.0000 H1        1 <0>         0.0000
     53 H21         4.2868   -2.4750    0.0000 H1        1 <0>         0.0000
     54 H22         5.0013   -2.0625    0.0000 HO        1 <0>         0.0000
     55 H23         5.0013   -4.5375    0.0000 H2        1 <0>         0.0000
     56 H24         6.7658   -5.2912    0.0000 H1        1 <0>         0.0000
     57 H25         6.7658   -5.2912    0.0000 H1        1 <0>         0.0000
     58 H26         7.5863   -5.3774    0.0000 HO        1 <0>         0.0000
     59 H27         6.4302   -3.2026    0.0000 H1        1 <0>         0.0000
     60 H28         6.1753   -2.4180    0.0000 H1        1 <0>         0.0000
     61 H29         6.1753   -2.4180    0.0000 H1        1 <0>         0.0000
     62 H30         6.7273   -1.8049    0.0000 HO        1 <0>         0.0000
     63 H31         7.2149   -3.4576    0.0000 H1        1 <0>         0.0000
     64 H32         7.8823   -2.9726    0.0000 HO        1 <0>         0.0000
     65 H33         7.2149   -4.2826    0.0000 H1        1 <0>         0.0000
     66 H34         7.8823   -4.7675    0.0000 HO        1 <0>         0.0000
     67 H35         4.2868   -4.9500    0.0000 H1        1 <0>         0.0000
     68 H36         4.2868   -5.7750    0.0000 HO        1 <0>         0.0000
@<TRIPOS>BOND
     1    1    2 1
     2    2    3 1
     3    3    4 1
     4    4    5 1
     5    5    6 1
     6    6    7 1
     7    7    8 1
     8    8    9 2
     9    8   10 1
    10   10   11 1
    11   11   12 1
    12   12   13 1
    13   12   14 1
    14   14   15 1
    15   15   16 1
    16   14   17 1
    17   17   18 1
    18   18   19 1
    19   19   20 1
    20   20   21 1
    21   21   22 1
    22   20   23 1
    23   23   24 1
    24   24   25 1
    25   25   26 1
    26   24   27 1
    27   27   28 1
    28   27   29 1
    29   20   29 1
    30   29   30 1
    31   18   31 1
    32   11   31 1
    33   31   32 1
    34    1   33 1
    35    1   34 1
    36    1   35 1
    37    2   36 1
    38    2   37 1
    39    3   38 1
    40    3   39 1
    41    4   40 1
    42    4   41 1
    43    5   42 1
    44    5   43 1
    45    6   44 1
    46    6   45 1
    47    7   46 1
    48    7   47 1
    49   11   48 1
    50   12   49 1
    51   13   50 1
    52   14   51 1
    53   15   52 1
    54   15   53 1
    55   16   54 1
    56   18   55 1
    57   21   56 1
    58   21   57 1
    59   22   58 1
    60   24   59 1
    61   25   60 1
    62   25   61 1
    63   26   62 1
    64   27   63 1
    65   28   64 1
    66   29   65 1
    67   30   66 1
    68   31   67 1
    69   32   68 1
@<TRIPOS>MOLECULE
*****
   48    49     0     0     0
SMALL
NO_CHARGES

@<TRIPOS>ATOM
      1 C1         -1.4289    0.0000    0.0000 CT        1 <0>         0.0000
      2 O1         -0.7145   -0.4125    0.0000 OS        1 <0>         0.0000
      3 C2         -0.7145   -1.2375    0.0000 CT        1 <0>         0.0000
      4 O2         -1.4289   -1.6500    0.0000 OS        1 <0>         0.0000
      5 C3         -1.4289   -2.4750    0.0000 CT        1 <0>         0.0000
      6 C4         -2.1434   -2.8875    0.0000 CT        1 <0>         0.0000
      7 O3         -2.1434   -3.7125    0.0000 OH        1 <0>         0.0000
      8 C5         -0.7145   -2.8875    0.0000 CT        1 <0>         0.0000
      9 O4         -0.7145   -3.7125    0.0000 OH        1 <0>         0.0000
     10 C6          0.0000   -2.4750    0.0000 CT        1 <0>         0.0000
     11 O5          0.7145   -2.8875    0.0000 OS        1 <0>         0.0000
     12 C7          1.4289   -2.4750    0.0000 CT        1 <0>         0.0000
     13 O6          1.4289   -1.6500    0.0000 OS        1 <0>         0.0000
     14 C8          2.1434   -1.2375    0.0000 CT        1 <0>         0.0000
     15 C9          2.1434   -0.4125    0.0000 CT        1 <0>         0.0000
     16 O7          1.4289    0.0000    0.0000 OH        1 <0>         0.0000
     17 C10         2.8579   -1.6500    0.0000 CT        1 <0>         0.0000
     18 O8          3.5724   -1.2375    0.0000 OH        1 <0>         0.0000
     19 C11         2.8579   -2.4750    0.0000 CT        1 <0>         0.0000
     20 O9          3.5724   -2.8875    0.0000 OH        1 <0>         0.0000
     21 C12         2.1434   -2.8875    0.0000 CT        1 <0>         0.0000
     22 O10         2.1434   -3.7125    0.0000 OH        1 <0>         0.0000
     23 C13         0.0000   -1.6500    0.0000 CT        1 <0>         0.0000
     24 O11         0.7145   -1.2375    0.0000 OH        1 <0>         0.0000
     25 H1         -1.4289    0.0000    0.0000 H1        1 <0>         0.0000
     26 H2         -1.4289    0.0000    0.0000 H1        1 <0>         0.0000
     27 H3         -1.4289    0.0000    0.0000 H1        1 <0>         0.0000
     28 H4         -0.7145   -1.2375    0.0000 H2        1 <0>         0.0000
     29 H5         -1.4289   -2.4750    0.0000 H1        1 <0>         0.0000
     30 H6         -2.1434   -2.8875    0.0000 H1        1 <0>         0.0000
     31 H7         -2.1434   -2.8875    0.0000 H1        1 <0>         0.0000
     32 H8         -2.1434   -3.7125    0.0000 HO        1 <0>         0.0000
     33 H9         -0.7145   -2.8875    0.0000 H1        1 <0>         0.0000
     34 H10        -0.7145   -3.7125    0.0000 HO        1 <0>         0.0000
     35 H11         0.0000   -2.4750    0.0000 H1        1 <0>         0.0000
     36 H12         1.4289   -2.4750    0.0000 H2        1 <0>         0.0000
     37 H13         2.1434   -1.2375    0.0000 H1        1 <0>         0.0000
     38 H14         2.1434   -0.4125    0.0000 H1        1 <0>         0.0000
     39 H15         2.1434   -0.4125    0.0000 H1        1 <0>         0.0000
     40 H16         1.4289    0.0000    0.0000 HO        1 <0>         0.0000
     41 H17         2.8579   -1.6500    0.0000 H1        1 <0>         0.0000
     42 H18         3.5724   -1.2375    0.0000 HO        1 <0>         0.0000
     43 H19         2.8579   -2.4750    0.0000 H1        1 <0>         0.0000
     44 H20         3.5724   -2.8875    0.0000 HO        1 <0>         0.0000
     45 H21         2.1434   -2.8875    0.0000 H1        1 <0>         0.0000
     46 H22         2.1434   -3.7125    0.0000 HO        1 <0>         0.0000
     47 H23         0.0000   -1.6500    0.0000 H1        1 <0>         0.0000
     48 H24         0.7145   -1.2375    0.0000 HO        1 <0>         0.0000
@<TRIPOS>BOND
     1    1    2 1
     2    2    3 1
     3    3    4 1
     4    4    5 1
     5    5    6 1
     6    6    7 1
     7    5    8 1
     8    8    9 1
     9    8   10 1
    10   10   11 1
    11   11   12 1
    12   12   13 1
    13   13   14 1
    14   14   15 1
    15   15   16 1
    16   14   17 1
    17   17   18 1
    18   17   19 1
    19   19   20 1
    20   19   21 1
    21   12   21 1
    22   21   22 1
    23   10   23 1
    24    3   23 1
    25   23   24 1
    26    1   25 1
    27    1   26 1
    28    1   27 1
    29    3   28 1
    30    5   29 1
    31    6   30 1
    32    6   31 1
    33    7   32 1
    34    8   33 1
    35    9   34 1
    36   10   35 1
    37   12   36 1
    38   14   37 1
    39   15   38 1
    40   15   39 1
    41   16   40 1
    42   17   41 1
    43   18   42 1
    44   19   43 1
    45   20   44 1
    46   21   45 1
    47   22   46 1
    48   23   47 1
    49   24   48 1
@<TRIPOS>MOLECULE
*****
   33    35     0     0     0
SMALL
NO_CHARGES

@<TRIPOS>ATOM
      1 O1          0.0000   -1.6500    0.0000 OH        1 <0>         0.0000
      2 C1          0.7145   -1.2375    0.0000 CA        1 <0>         0.0000
      3 C2          0.7145   -0.4125    0.0000 CA        1 <0>         0.0000
      4 C3          1.4289    0.0000    0.0000 CA        1 <0>         0.0000
      5 O2          1.4289    0.8250    0.0000 OH        1 <0>         0.0000
      6 C4          2.1434   -0.4125    0.0000 CB        1 <0>         0.0000
      7 C5          2.8579    0.0000    0.0000 C         1 <0>         0.0000
      8 O3          2.8579    0.8250    0.0000 O         1 <0>         0.0000
      9 C6          3.5724   -0.4125    0.0000 CA        1 <0>         0.0000
     10 O4          4.2868    0.0000    0.0000 OH        1 <0>         0.0000
     11 C7          3.5724   -1.2375    0.0000 CP        1 <0>         0.0000
     12 O5          2.8579   -1.6500    0.0000 OS        1 <0>         0.0000
     13 C8          2.1434   -1.2375    0.0000 CB        1 <0>         0.0000
     14 C9          1.4289   -1.6500    0.0000 CA        1 <0>         0.0000
     15 C10         4.2868   -1.6500    0.0000 CP        1 <0>         0.0000
     16 C11         5.0013   -1.2375    0.0000 CA        1 <0>         0.0000
     17 C12         5.7158   -1.6500    0.0000 CA        1 <0>         0.0000
     18 O6          6.4302   -1.2375    0.0000 OH        1 <0>         0.0000
     19 C13         5.7158   -2.4750    0.0000 CA        1 <0>         0.0000
     20 O7          6.4302   -2.8875    0.0000 OH        1 <0>         0.0000
     21 C14         5.0013   -2.8875    0.0000 CA        1 <0>         0.0000
     22 O8          5.0013   -3.7125    0.0000 OH        1 <0>         0.0000
     23 C15         4.2868   -2.4750    0.0000 CA        1 <0>         0.0000
     24 H1          0.0000   -1.6500    0.0000 HO        1 <0>         0.0000
     25 H2          0.7145   -0.4125    0.0000 HA        1 <0>         0.0000
     26 H3          1.4289    0.8250    0.0000 HO        1 <0>         0.0000
     27 H4          4.2868    0.0000    0.0000 HO        1 <0>         0.0000
     28 H5          1.4289   -1.6500    0.0000 HA        1 <0>         0.0000
     29 H6          5.0013   -1.2375    0.0000 HA        1 <0>         0.0000
     30 H7          6.4302   -1.2375    0.0000 HO        1 <0>         0.0000
     31 H8          6.4302   -2.8875    0.0000 HO        1 <0>         0.0000
     32 H9          5.0013   -3.7125    0.0000 HO        1 <0>         0.0000
     33 H10         4.2868   -2.4750    0.0000 HA        1 <0>         0.0000
@<TRIPOS>BOND
     1    1    2 1
     2    2    3 ar
     3    3    4 ar
     4    4    5 1
     5    4    6 ar
     6    6    7 1
     7    7    8 2
     8    7    9 1
     9    9   10 1
    10    9   11 2
    11   11   12 1
    12   12   13 1
    13    6   13 ar
    14   13   14 ar
    15    2   14 ar
    16   11   15 1
    17   15   16 ar
    18   16   17 ar
    19   17   18 1
    20   17   19 ar
    21   19   20 1
    22   19   21 ar
    23   21   22 1
    24   21   23 ar
    25   15   23 ar
    26    1   24 1
    27    3   25 1
    28    5   26 1
    29   10   27 1
    30   14   28 1
    31   16   29 1
    32   18   30 1
    33   20   31 1
    34   22   32 1
    35   23   33 1
@<TRIPOS>MOLECULE
*****
   24    24     0     0     0
SMALL
NO_CHARGES

@<TRIPOS>ATOM
      1 O1          2.1434    2.0625    0.0000 OH        1 <0>         0.0000
      2 C1          2.1434    1.2375    0.0000 CT        1 <0>         0.0000
      3 C2          1.4289    0.8250    0.0000 CT        1 <0>         0.0000
      4 O2          1.4289    0.0000    0.0000 OS        1 <0>         0.0000
      5 C3          0.7145   -0.4125    0.0000 CT        1 <0>         0.0000
      6 O3          0.7145   -1.2375    0.0000 OH        1 <0>         0.0000
      7 C4          0.0000    0.0000    0.0000 CT        1 <0>         0.0000
      8 O4         -0.7145   -0.4125    0.0000 OH        1 <0>         0.0000
      9 C5          0.0000    0.8250    0.0000 CT        1 <0>         0.0000
     10 O5         -0.7145    1.2375    0.0000 OH        1 <0>         0.0000
     11 C6          0.7145    1.2375    0.0000 CT        1 <0>         0.0000
     12 O6          0.7145    2.0625    0.0000 OH        1 <0>         0.0000
     13 H1          2.1434    2.0625    0.0000 HO        1 <0>         0.0000
     14 H2          2.1434    1.2375    0.0000 H1        1 <0>         0.0000
     15 H3          2.1434    1.2375    0.0000 H1        1 <0>         0.0000
     16 H4          1.4289    0.8250    0.0000 H1        1 <0>         0.0000
     17 H5          0.7145   -0.4125    0.0000 H2        1 <0>         0.0000
     18 H6          0.7145   -1.2375    0.0000 HO        1 <0>         0.0000
     19 H7          0.0000    0.0000    0.0000 H1        1 <0>         0.0000
     20 H8         -0.7145   -0.4125    0.0000 HO        1 <0>         0.0000
     21 H9          0.0000    0.8250    0.0000 H1        1 <0>         0.0000
     22 H10        -0.7145    1.2375    0.0000 HO        1 <0>         0.0000
     23 H11         0.7145    1.2375    0.0000 H1        1 <0>         0.0000
     24 H12         0.7145    2.0625    0.0000 HO        1 <0>         0.0000
@<TRIPOS>BOND
     1    1    2 1
     2    2    3 1
     3    3    4 1
     4    4    5 1
     5    5    6 1
     6    5    7 1
     7    7    8 1
     8    7    9 1
     9    9   10 1
    10    9   11 1
    11    3   11 1
    12   11   12 1
    13    1   13 1
    14    2   14 1
    15    2   15 1
    16    3   16 1
    17    5   17 1
    18    6   18 1
    19    7   19 1
    20    8   20 1
    21    9   21 1
    22   10   22 1
    23   11   23 1
    24   12   24 1
@<TRIPOS>MOLECULE
*****
   24    25     0     0     0
SMALL
NO_CHARGES

@<TRIPOS>ATOM
      1 O1         -0.7612   -1.5395    0.0000 OH        1 <0>         0.0000
      2 C1          0.0638   -1.5395    0.0000 CT        1 <0>         0.0000
      3 C2          0.4763   -0.8250    0.0000 CJ        1 <0>         0.0000
      4 O2         -0.2382   -0.4125    0.0000 OS        1 <0>         0.0000
      5 C3          0.4763    0.0000    0.0000 CJ        1 <0>         0.0000
      6 C4          1.1908    0.4125    0.0000 CT        1 <0>         0.0000
      7 C5          1.9053    0.0000    0.0000 CT        1 <0>         0.0000
      8 O3          2.6197    0.4125    0.0000 OH        1 <0>         0.0000
      9 C6          1.9053   -0.8250    0.0000 CT        1 <0>         0.0000
     10 O4          2.6197   -1.2375    0.0000 OH        1 <0>         0.0000
     11 C7          1.1908   -1.2375    0.0000 CT        1 <0>         0.0000
     12 O5          1.1908   -2.0625    0.0000 OH        1 <0>         0.0000
     13 H1         -0.7612   -1.5395    0.0000 HO        1 <0>         0.0000
     14 H2          0.0638   -1.5395    0.0000 H1        1 <0>         0.0000
     15 H3          0.0638   -1.5395    0.0000 H1        1 <0>         0.0000
     16 H4          0.4763    0.0000    0.0000 H1        1 <0>         0.0000
     17 H5          1.1908    0.4125    0.0000 HC        1 <0>         0.0000
     18 H6          1.1908    0.4125    0.0000 HC        1 <0>         0.0000
     19 H7          1.9053    0.0000    0.0000 H1        1 <0>         0.0000
     20 H8          2.6197    0.4125    0.0000 HO        1 <0>         0.0000
     21 H9          1.9053   -0.8250    0.0000 H1        1 <0>         0.0000
     22 H10         2.6197   -1.2375    0.0000 HO        1 <0>         0.0000
     23 H11         1.1908   -1.2375    0.0000 H1        1 <0>         0.0000
     24 H12         1.1908   -2.0625    0.0000 HO        1 <0>         0.0000
@<TRIPOS>BOND
     1    1    2 1
     2    2    3 1
     3    3    4 1
     4    4    5 1
     5    3    5 1
     6    5    6 1
     7    6    7 1
     8    7    8 1
     9    7    9 1
    10    9   10 1
    11    9   11 1
    12    3   11 1
    13   11   12 1
    14    1   13 1
    15    2   14 1
    16    2   15 1
    17    5   16 1
    18    6   17 1
    19    6   18 1
    20    7   19 1
    21    8   20 1
    22    9   21 1
    23   10   22 1
    24   11   23 1
    25   12   24 1
@<TRIPOS>MOLECULE
*****
   25    24     0     0     0
SMALL
NO_CHARGES

@<TRIPOS>ATOM
      1 C1          1.7605    1.8414    0.0000 CT        1 <0>         0.0000
      2 C2          2.4750    1.4289    0.0000 CT        1 <0>         0.0000
      3 O1          2.4750    0.6039    0.0000 OH        1 <0>         0.0000
      4 C3          3.1895    1.8414    0.0000 CT        1 <0>         0.0000
      5 O2          3.1895    2.6664    0.0000 OH        1 <0>         0.0000
      6 C4          3.9039    1.4289    0.0000 CT        1 <0>         0.0000
      7 O3          3.9039    0.6039    0.0000 OH        1 <0>         0.0000
      8 C5          4.6184    1.8414    0.0000 CT        1 <0>         0.0000
      9 O4          4.6184    2.6664    0.0000 OH        1 <0>         0.0000
     10 C6          5.3329    1.4289    0.0000 CT        1 <0>         0.0000
     11 O5          6.0474    1.8414    0.0000 OH        1 <0>         0.0000
     12 H1          1.7605    1.8414    0.0000 HC        1 <0>         0.0000
     13 H2          1.7605    1.8414    0.0000 HC        1 <0>         0.0000
     14 H3          1.7605    1.8414    0.0000 HC        1 <0>         0.0000
     15 H4          2.4750    1.4289    0.0000 H1        1 <0>         0.0000
     16 H5          2.4750    0.6039    0.0000 HO        1 <0>         0.0000
     17 H6          3.1895    1.8414    0.0000 H1        1 <0>         0.0000
     18 H7          3.1895    2.6664    0.0000 HO        1 <0>         0.0000
     19 H8          3.9039    1.4289    0.0000 H1        1 <0>         0.0000
     20 H9          3.9039    0.6039    0.0000 HO        1 <0>         0.0000
     21 H10         4.6184    1.8414    0.0000 H1        1 <0>         0.0000
     22 H11         4.6184    2.6664    0.0000 HO        1 <0>         0.0000
     23 H12         5.3329    1.4289    0.0000 H1        1 <0>         0.0000
     24 H13         5.3329    1.4289    0.0000 H1        1 <0>         0.0000
     25 H14         6.0474    1.8414    0.0000 HO        1 <0>         0.0000
@<TRIPOS>BOND
     1    1    2 1
     2    2    3 1
     3    2    4 1
     4    4    5 1
     5    4    6 1
     6    6    7 1
     7    6    8 1
     8    8    9 1
     9    8   10 1
    10   10   11 1
    11    1   12 1
    12    1   13 1
    13    1   14 1
    14    2   15 1
    15    3   16 1
    16    4   17 1
    17    5   18 1
    18    6   19 1
    19    7   20 1
    20    8   21 1
    21    9   22 1
    22   10   23 1
    23   10   24 1
    24   11   25 1
@<TRIPOS>MOLECULE
*****
   17    16     0     0     0
SMALL
NO_CHARGES

@<TRIPOS>ATOM
      1 C1         -0.1914    0.7145    0.0000 CT        1 <0>         0.0000
      2 C2          0.5230    1.1270    0.0000 CT        1 <0>         0.0000
      3 C3          1.2375    0.7145    0.0000 CT        1 <0>         0.0000
      4 C4          1.9520    1.1270    0.0000 CT        1 <0>         0.0000
      5 C5          2.6664    0.7145    0.0000 C         1 <0>         0.0000
      6 O1          3.3809    1.1270    0.0000 OH        1 <0>         0.0000
      7 O2          2.6664   -0.1105    0.0000 O         1 <0>         0.0000
      8 H1         -0.1914    0.7145    0.0000 HC        1 <0>         0.0000
      9 H2         -0.1914    0.7145    0.0000 HC        1 <0>         0.0000
     10 H3         -0.1914    0.7145    0.0000 HC        1 <0>         0.0000
     11 H4          0.5230    1.1270    0.0000 HC        1 <0>         0.0000
     12 H5          0.5230    1.1270    0.0000 HC        1 <0>         0.0000
     13 H6          1.2375    0.7145    0.0000 HC        1 <0>         0.0000
     14 H7          1.2375    0.7145    0.0000 HC        1 <0>         0.0000
     15 H8          1.9520    1.1270    0.0000 HC        1 <0>         0.0000
     16 H9          1.9520    1.1270    0.0000 HC        1 <0>         0.0000
     17 H10         3.3809    1.1270    0.0000 HO        1 <0>         0.0000
@<TRIPOS>BOND
     1    1    2 1
     2    2    3 1
     3    3    4 1
     4    4    5 1
     5    5    6 1
     6    5    7 2
     7    1    8 1
     8    1    9 1
     9    1   10 1
    10    2   11 1
    11    2   12 1
    12    3   13 1
    13    3   14 1
    14    4   15 1
    15    4   16 1
    16    6   17 1
@<TRIPOS>MOLECULE
*****
   16    16     0     0     0
SMALL
NO_CHARGES

@<TRIPOS>ATOM
      1 C1          1.4289    0.8250    0.0000 CT        1 <0>         0.0000
      2 C2          1.4289    0.0000    0.0000 CT        1 <0>         0.0000
      3 C3          0.7145   -0.4125    0.0000 CT        1 <0>         0.0000
      4 O1          0.0000    0.0000    0.0000 OS        1 <0>         0.0000
      5 C4          0.0000    0.8250    0.0000 CT        1 <0>         0.0000
      6 C5          0.7145    1.2375    0.0000 CT        1 <0>         0.0000
      7 H1          1.4289    0.8250    0.0000 HC        1 <0>         0.0000
      8 H2          1.4289    0.8250    0.0000 HC        1 <0>         0.0000
      9 H3          1.4289    0.0000    0.0000 HC        1 <0>         0.0000
     10 H4          1.4289    0.0000    0.0000 HC        1 <0>         0.0000
     11 H5          0.7145   -0.4125    0.0000 H1        1 <0>         0.0000
     12 H6          0.7145   -0.4125    0.0000 H1        1 <0>         0.0000
     13 H7          0.0000    0.8250    0.0000 H1        1 <0>         0.0000
     14 H8          0.0000    0.8250    0.0000 H1        1 <0>         0.0000
     15 H9          0.7145    1.2375    0.0000 HC        1 <0>         0.0000
     16 H10         0.7145    1.2375    0.0000 HC        1 <0>         0.0000
@<TRIPOS>BOND
     1    1    2 1
     2    2    3 1
     3    3    4 1
     4    4    5 1
     5    5    6 1
     6    1    6 1
     7    1    7 1
     8    1    8 1
     9    2    9 1
    10    2   10 1
    11    3   11 1
    12    3   12 1
    13    5   13 1
    14    5   14 1
    15    6   15 1
    16    6   16 1
@<TRIPOS>MOLECULE
*****
   16    15     0     0     0
SMALL
NO_CHARGES

@<TRIPOS>ATOM
      1 C1          0.8250    1.4289    0.0000 CT        1 <0>         0.0000
      2 C2          1.2375    0.7145    0.0000 CT        1 <0>         0.0000
      3 O1          2.0625    0.7145    0.0000 OH        1 <0>         0.0000
      4 C3          0.8250    0.0000    0.0000 CT        1 <0>         0.0000
      5 C4          1.2375   -0.7145    0.0000 CT        1 <0>         0.0000
      6 O2          0.0000    0.0000    0.0000 OH        1 <0>         0.0000
      7 H1          0.8250    1.4289    0.0000 HC        1 <0>         0.0000
      8 H2          0.8250    1.4289    0.0000 HC        1 <0>         0.0000
      9 H3          0.8250    1.4289    0.0000 HC        1 <0>         0.0000
     10 H4          1.2375    0.7145    0.0000 H1        1 <0>         0.0000
     11 H5          2.0625    0.7145    0.0000 HO        1 <0>         0.0000
     12 H6          0.8250    0.0000    0.0000 H1        1 <0>         0.0000
     13 H7          1.2375   -0.7145    0.0000 HC        1 <0>         0.0000
     14 H8          1.2375   -0.7145    0.0000 HC        1 <0>         0.0000
     15 H9          1.2375   -0.7145    0.0000 HC        1 <0>         0.0000
     16 H10         0.0000    0.0000    0.0000 HO        1 <0>         0.0000
@<TRIPOS>BOND
     1    1    2 1
     2    2    3 1
     3    2    4 1
     4    4    5 1
     5    4    6 1
     6    1    7 1
     7    1    8 1
     8    1    9 1
     9    2   10 1
    10    3   11 1
    11    4   12 1
    12    5   13 1
    13    5   14 1
    14    5   15 1
    15    6   16 1
@<TRIPOS>MOLECULE
*****
   71    70     0     0     0
SMALL
NO_CHARGES

@<TRIPOS>ATOM
      1 C1         -8.2164    0.2062    0.0000 CT        1 <0>         0.0000
      2 C2          8.2164    0.6187    0.0000 CT        1 <0>         0.0000
      3 C3         -7.5019    0.6187    0.0000 CT        1 <0>         0.0000
      4 C4          7.5019    0.2062    0.0000 CT        1 <0>         0.0000
      5 C5         -6.7874    0.2062    0.0000 CT        1 <0>         0.0000
      6 C6          6.7874    0.6187    0.0000 CT        1 <0>         0.0000
      7 C7         -6.0730    0.6187    0.0000 CT        1 <0>         0.0000
      8 C8          6.0730    0.2062    0.0000 CT        1 <0>         0.0000
      9 C9         -5.3585    0.2062    0.0000 CT        1 <0>         0.0000
     10 C10        -4.6440    0.6187    0.0000 CT        1 <0>         0.0000
     11 C11        -3.9295    0.2062    0.0000 CT        1 <0>         0.0000
     12 C12        -3.2151    0.6187    0.0000 CT        1 <0>         0.0000
     13 C13        -2.5006    0.2062    0.0000 CT        1 <0>         0.0000
     14 C14        -1.7861    0.6187    0.0000 CT        1 <0>         0.0000
     15 C15        -1.0717    0.2062    0.0000 CT        1 <0>         0.0000
     16 C16        -0.3572    0.6187    0.0000 CT        1 <0>         0.0000
     17 C17         5.3585    0.6187    0.0000 CT        1 <0>         0.0000
     18 C18         0.3572    0.2062    0.0000 CT        1 <0>         0.0000
     19 C19         4.6440    0.2062    0.0000 CT        1 <0>         0.0000
     20 C20         1.0717    0.6187    0.0000 CT        1 <0>         0.0000
     21 C21         3.9295    0.6187    0.0000 CT        1 <0>         0.0000
     22 C22         1.7861    0.2062    0.0000 CT        1 <0>         0.0000
     23 C23         3.2151    0.2062    0.0000 C         1 <0>         0.0000
     24 O1          3.2151   -0.6187    0.0000 O         1 <0>         0.0000
     25 O2          2.5006    0.6187    0.0000 OS        1 <0>         0.0000
     26 H1         -8.2164    0.2062    0.0000 HC        1 <0>         0.0000
     27 H2         -8.2164    0.2062    0.0000 HC        1 <0>         0.0000
     28 H3         -8.2164    0.2062    0.0000 HC        1 <0>         0.0000
     29 H4          8.2164    0.6187    0.0000 HC        1 <0>         0.0000
     30 H5          8.2164    0.6187    0.0000 HC        1 <0>         0.0000
     31 H6          8.2164    0.6187    0.0000 HC        1 <0>         0.0000
     32 H7         -7.5019    0.6187    0.0000 HC        1 <0>         0.0000
     33 H8         -7.5019    0.6187    0.0000 HC        1 <0>         0.0000
     34 H9          7.5019    0.2062    0.0000 HC        1 <0>         0.0000
     35 H10         7.5019    0.2062    0.0000 HC        1 <0>         0.0000
     36 H11        -6.7874    0.2062    0.0000 HC        1 <0>         0.0000
     37 H12        -6.7874    0.2062    0.0000 HC        1 <0>         0.0000
     38 H13         6.7874    0.6187    0.0000 HC        1 <0>         0.0000
     39 H14         6.7874    0.6187    0.0000 HC        1 <0>         0.0000
     40 H15        -6.0730    0.6187    0.0000 HC        1 <0>         0.0000
     41 H16        -6.0730    0.6187    0.0000 HC        1 <0>         0.0000
     42 H17         6.0730    0.2062    0.0000 HC        1 <0>         0.0000
     43 H18         6.0730    0.2062    0.0000 HC        1 <0>         0.0000
     44 H19        -5.3585    0.2062    0.0000 HC        1 <0>         0.0000
     45 H20        -5.3585    0.2062    0.0000 HC        1 <0>         0.0000
     46 H21        -4.6440    0.6187    0.0000 HC        1 <0>         0.0000
     47 H22        -4.6440    0.6187    0.0000 HC        1 <0>         0.0000
     48 H23        -3.9295    0.2062    0.0000 HC        1 <0>         0.0000
     49 H24        -3.9295    0.2062    0.0000 HC        1 <0>         0.0000
     50 H25        -3.2151    0.6187    0.0000 HC        1 <0>         0.0000
     51 H26        -3.2151    0.6187    0.0000 HC        1 <0>         0.0000
     52 H27        -2.5006    0.2062    0.0000 HC        1 <0>         0.0000
     53 H28        -2.5006    0.2062    0.0000 HC        1 <0>         0.0000
     54 H29        -1.7861    0.6187    0.0000 HC        1 <0>         0.0000
     55 H30        -1.7861    0.6187    0.0000 HC        1 <0>         0.0000
     56 H31        -1.0717    0.2062    0.0000 HC        1 <0>         0.0000
     57 H32        -1.0717    0.2062    0.0000 HC        1 <0>         0.0000
     58 H33        -0.3572    0.6187    0.0000 HC        1 <0>         0.0000
     59 H34        -0.3572    0.6187    0.0000 HC        1 <0>         0.0000
     60 H35         5.3585    0.6187    0.0000 HC        1 <0>         0.0000
     61 H36         5.3585    0.6187    0.0000 HC        1 <0>         0.0000
     62 H37         0.3572    0.2062    0.0000 HC        1 <0>         0.0000
     63 H38         0.3572    0.2062    0.0000 HC        1 <0>         0.0000
     64 H39         4.6440    0.2062    0.0000 HC        1 <0>         0.0000
     65 H40         4.6440    0.2062    0.0000 HC        1 <0>         0.0000
     66 H41         1.0717    0.6187    0.0000 HC        1 <0>         0.0000
     67 H42         1.0717    0.6187    0.0000 HC        1 <0>         0.0000
     68 H43         3.9295    0.6187    0.0000 HC        1 <0>         0.0000
     69 H44         3.9295    0.6187    0.0000 HC        1 <0>         0.0000
     70 H45         1.7861    0.2062    0.0000 H1        1 <0>         0.0000
     71 H46         1.7861    0.2062    0.0000 H1        1 <0>         0.0000
@<TRIPOS>BOND
     1    1    3 1
     2    2    4 1
     3    3    5 1
     4    4    6 1
     5    5    7 1
     6    6    8 1
     7    7    9 1
     8    9   10 1
     9   10   11 1
    10   11   12 1
    11   12   13 1
    12   13   14 1
    13   14   15 1
    14   15   16 1
    15    8   17 1
    16   16   18 1
    17   17   19 1
    18   18   20 1
    19   19   21 1
    20   20   22 1
    21   21   23 1
    22   23   24 2
    23   22   25 1
    24   23   25 1
    25    1   26 1
    26    1   27 1
    27    1   28 1
    28    2   29 1
    29    2   30 1
    30    2   31 1
    31    3   32 1
    32    3   33 1
    33    4   34 1
    34    4   35 1
    35    5   36 1
    36    5   37 1
    37    6   38 1
    38    6   39 1
    39    7   40 1
    40    7   41 1
    41    8   42 1
    42    8   43 1
    43    9   44 1
    44    9   45 1
    45   10   46 1
    46   10   47 1
    47   11   48 1
    48   11   49 1
    49   12   50 1
    50   12   51 1
    51   13   52 1
    52   13   53 1
    53   14   54 1
    54   14   55 1
    55   15   56 1
    56   15   57 1
    57   16   58 1
    58   16   59 1
    59   17   60 1
    60   17   61 1
    61   18   62 1
    62   18   63 1
    63   19   64 1
    64   19   65 1
    65   20   66 1
    66   20   67 1
    67   21   68 1
    68   21   69 1
    69   22   70 1
    70   22   71 1
@<TRIPOS>MOLECULE
*****
   27    26     0     0     0
SMALL
NO_CHARGES

@<TRIPOS>ATOM
      1 C1          4.6184    0.1914    0.0000 CT        1 <0>         0.0000
      2 O1          3.9039    0.6039    0.0000 OS        1 <0>         0.0000
      3 C2          3.9039    1.4289    0.0000 CT        1 <0>         0.0000
      4 C3          3.1895    1.8414    0.0000 CT        1 <0>         0.0000
      5 O2          3.1895    2.6664    0.0000 OH        1 <0>         0.0000
      6 C4          2.4750    1.4289    0.0000 CT        1 <0>         0.0000
      7 O3          2.4750    0.6039    0.0000 OH        1 <0>         0.0000
      8 C5          1.7605    1.8414    0.0000 CT        1 <0>         0.0000
      9 O4          1.0461    1.4289    0.0000 OH        1 <0>         0.0000
     10 C6          4.6184    1.8414    0.0000 C         1 <0>         0.0000
     11 O5          4.6184    2.6664    0.0000 O         1 <0>         0.0000
     12 C7          5.3329    1.4289    0.0000 CT        1 <0>         0.0000
     13 O6          6.0474    1.8414    0.0000 OH        1 <0>         0.0000
     14 H1          4.6184    0.1914    0.0000 H1        1 <0>         0.0000
     15 H2          4.6184    0.1914    0.0000 H1        1 <0>         0.0000
     16 H3          4.6184    0.1914    0.0000 H1        1 <0>         0.0000
     17 H4          3.9039    1.4289    0.0000 H1        1 <0>         0.0000
     18 H5          3.1895    1.8414    0.0000 H1        1 <0>         0.0000
     19 H6          3.1895    2.6664    0.0000 HO        1 <0>         0.0000
     20 H7          2.4750    1.4289    0.0000 H1        1 <0>         0.0000
     21 H8          2.4750    0.6039    0.0000 HO        1 <0>         0.0000
     22 H9          1.7605    1.8414    0.0000 H1        1 <0>         0.0000
     23 H10         1.7605    1.8414    0.0000 H1        1 <0>         0.0000
     24 H11         1.0461    1.4289    0.0000 HO        1 <0>         0.0000
     25 H12         5.3329    1.4289    0.0000 H1        1 <0>         0.0000
     26 H13         5.3329    1.4289    0.0000 H1        1 <0>         0.0000
     27 H14         6.0474    1.8414    0.0000 HO        1 <0>         0.0000
@<TRIPOS>BOND
     1    1    2 1
     2    2    3 1
     3    3    4 1
     4    4    5 1
     5    4    6 1
     6    6    7 1
     7    6    8 1
     8    8    9 1
     9    3   10 1
    10   10   11 2
    11   10   12 1
    12   12   13 1
    13    1   14 1
    14    1   15 1
    15    1   16 1
    16    3   17 1
    17    4   18 1
    18    5   19 1
    19    6   20 1
    20    7   21 1
    21    8   22 1
    22    8   23 1
    23    9   24 1
    24   12   25 1
    25   12   26 1
    26   13   27 1
@<TRIPOS>MOLECULE
TDA
   41    40     0     0     0
SMALL
NO_CHARGES

@<TRIPOS>ATOM
      1 O1         -4.9362   -0.2196    0.0000 OH        1 <0>         0.0000
      2 O2         -4.2216    1.0180    0.0000 O         1 <0>         0.0000
      3 C1         -4.2216    0.1929    0.0000 C         1 <0>         0.0000
      4 C2         -3.5072   -0.2196    0.0000 CT        1 <0>         0.0000
      5 C3         -2.7926    0.1929    0.0000 CT        1 <0>         0.0000
      6 C4         -2.0781   -0.2196    0.0000 CT        1 <0>         0.0000
      7 C5         -1.3636    0.1929    0.0000 CT        1 <0>         0.0000
      8 C6         -0.6490   -0.2196    0.0000 CT        1 <0>         0.0000
      9 C7          0.0655    0.1929    0.0000 CT        1 <0>         0.0000
     10 C8          0.7801   -0.2196    0.0000 CT        1 <0>         0.0000
     11 C9          1.4945    0.1929    0.0000 CT        1 <0>         0.0000
     12 C10         2.2091   -0.2196    0.0000 CT        1 <0>         0.0000
     13 C11         2.9236    0.1929    0.0000 CT        1 <0>         0.0000
     14 C12         3.6381   -0.2196    0.0000 CT        1 <0>         0.0000
     15 C13         4.3526    0.1929    0.0000 CT        1 <0>         0.0000
     16 H1         -4.9362   -0.2196    0.0000 HO        1 <0>         0.0000
     17 H2         -3.5072   -0.2196    0.0000 HC        1 <0>         0.0000
     18 H3         -3.5072   -0.2196    0.0000 HC        1 <0>         0.0000
     19 H4         -2.7926    0.1929    0.0000 HC        1 <0>         0.0000
     20 H5         -2.7926    0.1929    0.0000 HC        1 <0>         0.0000
     21 H6         -2.0781   -0.2196    0.0000 HC        1 <0>         0.0000
     22 H7         -2.0781   -0.2196    0.0000 HC        1 <0>         0.0000
     23 H8         -1.3636    0.1929    0.0000 HC        1 <0>         0.0000
     24 H9         -1.3636    0.1929    0.0000 HC        1 <0>         0.0000
     25 H10        -0.6490   -0.2196    0.0000 HC        1 <0>         0.0000
     26 H11        -0.6490   -0.2196    0.0000 HC        1 <0>         0.0000
     27 H12         0.0655    0.1929    0.0000 HC        1 <0>         0.0000
     28 H13         0.0655    0.1929    0.0000 HC        1 <0>         0.0000
     29 H14         0.7801   -0.2196    0.0000 HC        1 <0>         0.0000
     30 H15         0.7801   -0.2196    0.0000 HC        1 <0>         0.0000
     31 H16         1.4945    0.1929    0.0000 HC        1 <0>         0.0000
     32 H17         1.4945    0.1929    0.0000 HC        1 <0>         0.0000
     33 H18         2.2091   -0.2196    0.0000 HC        1 <0>         0.0000
     34 H19         2.2091   -0.2196    0.0000 HC        1 <0>         0.0000
     35 H20         2.9236    0.1929    0.0000 HC        1 <0>         0.0000
     36 H21         2.9236    0.1929    0.0000 HC        1 <0>         0.0000
     37 H22         3.6381   -0.2196    0.0000 HC        1 <0>         0.0000
     38 H23         3.6381   -0.2196    0.0000 HC        1 <0>         0.0000
     39 H24         4.3526    0.1929    0.0000 HC        1 <0>         0.0000
     40 H25         4.3526    0.1929    0.0000 HC        1 <0>         0.0000
     41 H26         4.3526    0.1929    0.0000 HC        1 <0>         0.0000
@<TRIPOS>BOND
     1    1    3 1
     2    2    3 2
     3    3    4 1
     4    4    5 1
     5    5    6 1
     6    6    7 1
     7    7    8 1
     8    8    9 1
     9    9   10 1
    10   10   11 1
    11   11   12 1
    12   12   13 1
    13   13   14 1
    14   14   15 1
    15    1   16 1
    16    4   17 1
    17    4   18 1
    18    5   19 1
    19    5   20 1
    20    6   21 1
    21    6   22 1
    22    7   23 1
    23    7   24 1
    24    8   25 1
    25    8   26 1
    26    9   27 1
    27    9   28 1
    28   10   29 1
    29   10   30 1
    30   11   31 1
    31   11   32 1
    32   12   33 1
    33   12   34 1
    34   13   35 1
    35   13   36 1
    36   14   37 1
    37   14   38 1
    38   15   39 1
    39   15   40 1
    40   15   41 1
@<TRIPOS>MOLECULE
BYS
   43    45     0     0     0
SMALL
NO_CHARGES

@<TRIPOS>ATOM
      1 C1         -0.7354    0.2029    0.0000 CT        1 <0>         0.0000
      2 C2         -0.7354    1.0279    0.0000 C         1 <0>         0.0000
      3 O1         -0.0209    1.4404    0.0000 O         1 <0>         0.0000
      4 O2         -1.4498    1.4404    0.0000 OH        1 <0>         0.0000
      5 C3         -1.4498   -0.2096    0.0000 CT        1 <0>         0.0000
      6 C4         -2.1643    0.2029    0.0000 CA        1 <0>         0.0000
      7 C5         -2.8788   -0.2096    0.0000 CA        1 <0>         0.0000
      8 C6         -3.5932    0.2029    0.0000 CA        1 <0>         0.0000
      9 C7         -3.5932    1.0279    0.0000 CA        1 <0>         0.0000
     10 C8         -2.8788    1.4404    0.0000 CA        1 <0>         0.0000
     11 C9         -2.1643    1.0279    0.0000 CA        1 <0>         0.0000
     12 C10        -0.0209   -0.2096    0.0000 CT        1 <0>         0.0000
     13 C11        -0.0209   -1.0346    0.0000 C         1 <0>         0.0000
     14 O3          0.6936   -1.4471    0.0000 O         1 <0>         0.0000
     15 O4         -0.7354   -1.4471    0.0000 OH        1 <0>         0.0000
     16 C12         0.6936    0.2029    0.0000 CT        1 <0>         0.0000
     17 C13         1.4081   -0.2096    0.0000 CA        1 <0>         0.0000
     18 C14         2.1225    0.2029    0.0000 CA        1 <0>         0.0000
     19 C15         2.8370   -0.2096    0.0000 CA        1 <0>         0.0000
     20 O5          3.6216    0.0453    0.0000 OS        1 <0>         0.0000
     21 C16         4.1065   -0.6221    0.0000 CT        1 <0>         0.0000
     22 O6          3.6216   -1.2896    0.0000 OS        1 <0>         0.0000
     23 C17         2.8370   -1.0346    0.0000 CA        1 <0>         0.0000
     24 C18         2.1225   -1.4471    0.0000 CA        1 <0>         0.0000
     25 C19         1.4081   -1.0346    0.0000 CA        1 <0>         0.0000
     26 H1         -1.2410    0.4948    0.0000 HC        1 <0>         0.0000
     27 H2         -0.5266   -0.5016    0.0000 HC        1 <0>         0.0000
     28 H3         -1.4498    1.4404    0.0000 HO        1 <0>         0.0000
     29 H4         -1.4498   -0.2096    0.0000 HC        1 <0>         0.0000
     30 H5         -1.4498   -0.2096    0.0000 HC        1 <0>         0.0000
     31 H6         -2.8788   -0.2096    0.0000 HA        1 <0>         0.0000
     32 H7         -3.5932    0.2029    0.0000 HA        1 <0>         0.0000
     33 H8         -3.5932    1.0279    0.0000 HA        1 <0>         0.0000
     34 H9         -2.8788    1.4404    0.0000 HA        1 <0>         0.0000
     35 H10        -2.1643    1.0279    0.0000 HA        1 <0>         0.0000
     36 H11        -0.7354   -1.4471    0.0000 HO        1 <0>         0.0000
     37 H12         0.6936    0.2029    0.0000 HC        1 <0>         0.0000
     38 H13         0.6936    0.2029    0.0000 HC        1 <0>         0.0000
     39 H14         2.1225    0.2029    0.0000 HA        1 <0>         0.0000
     40 H15         4.1065   -0.6221    0.0000 H2        1 <0>         0.0000
     41 H16         4.1065   -0.6221    0.0000 H2        1 <0>         0.0000
     42 H17         2.1225   -1.4471    0.0000 HA        1 <0>         0.0000
     43 H18         1.4081   -1.0346    0.0000 HA        1 <0>         0.0000
@<TRIPOS>BOND
     1    1    2 1
     2    1    5 1
     3    1   12 1
     4    1   26 1
     5    2    3 2
     6    2    4 1
     7    5    6 1
     8    6    7 ar
     9    6   11 ar
    10    7    8 ar
    11    8    9 ar
    12    9   10 ar
    13   10   11 ar
    14   12   13 1
    15   12   16 1
    16   12   27 1
    17   13   14 2
    18   13   15 1
    19   16   17 1
    20   17   18 ar
    21   17   25 ar
    22   18   19 ar
    23   19   20 1
    24   19   23 ar
    25   20   21 1
    26   21   22 1
    27   22   23 1
    28   23   24 ar
    29   24   25 ar
    30    4   28 1
    31    5   29 1
    32    5   30 1
    33    7   31 1
    34    8   32 1
    35    9   33 1
    36   10   34 1
    37   11   35 1
    38   15   36 1
    39   16   37 1
    40   16   38 1
    41   18   39 1
    42   21   40 1
    43   21   41 1
    44   24   42 1
    45   25   43 1
@<TRIPOS>MOLECULE
*****
   53    55     0     0     0
SMALL
NO_CHARGES

@<TRIPOS>ATOM
      1 C1          0.8986   -2.2820    0.0000 CT        1 <0>         0.0000
      2 C2          1.4289   -1.6500    0.0000 CT        1 <0>         0.0000
      3 C3          1.9592   -2.2820    0.0000 CT        1 <0>         0.0000
      4 C4          0.7145   -1.2375    0.0000 CT        1 <0>         0.0000
      5 C5          0.7145   -0.4125    0.0000 CT        1 <0>         0.0000
      6 C6          1.4289    0.0000    0.0000 CT        1 <0>         0.0000
      7 C7          0.8986    0.6320    0.0000 CT        1 <0>         0.0000
      8 C8          1.9592    0.6320    0.0000 CT        1 <0>         0.0000
      9 C9          2.1434   -0.4125    0.0000 CA        1 <0>         0.0000
     10 C10         2.8579    0.0000    0.0000 CA        1 <0>         0.0000
     11 C11         3.5724   -0.4125    0.0000 CA        1 <0>         0.0000
     12 C12         3.5724   -1.2375    0.0000 CA        1 <0>         0.0000
     13 C13         2.8579   -1.6500    0.0000 CA        1 <0>         0.0000
     14 C14         2.1434   -1.2375    0.0000 CA        1 <0>         0.0000
     15 C15         4.2868    0.0000    0.0000 C         1 <0>         0.0000
     16 O1          4.2868    0.8250    0.0000 O         1 <0>         0.0000
     17 C16         5.0013   -0.4125    0.0000 CM        1 <0>         0.0000
     18 C17         5.7158    0.0000    0.0000 CM        1 <0>         0.0000
     19 C18         6.4302   -0.4125    0.0000 CA        1 <0>         0.0000
     20 C19         7.1447    0.0000    0.0000 CA        1 <0>         0.0000
     21 C20         7.8592   -0.4125    0.0000 CA        1 <0>         0.0000
     22 C21         7.8592   -1.2375    0.0000 CA        1 <0>         0.0000
     23 C22         7.1447   -1.6500    0.0000 CA        1 <0>         0.0000
     24 C23         6.4302   -1.2375    0.0000 CA        1 <0>         0.0000
     25 C24         8.5737   -1.6500    0.0000 C         1 <0>         0.0000
     26 O2          9.2881   -1.2375    0.0000 OH        1 <0>         0.0000
     27 O3          8.5737   -2.4750    0.0000 O         1 <0>         0.0000
     28 H1          0.8986   -2.2820    0.0000 HC        1 <0>         0.0000
     29 H2          0.8986   -2.2820    0.0000 HC        1 <0>         0.0000
     30 H3          0.8986   -2.2820    0.0000 HC        1 <0>         0.0000
     31 H4          1.9592   -2.2820    0.0000 HC        1 <0>         0.0000
     32 H5          1.9592   -2.2820    0.0000 HC        1 <0>         0.0000
     33 H6          1.9592   -2.2820    0.0000 HC        1 <0>         0.0000
     34 H7          0.7145   -1.2375    0.0000 HC        1 <0>         0.0000
     35 H8          0.7145   -1.2375    0.0000 HC        1 <0>         0.0000
     36 H9          0.7145   -0.4125    0.0000 HC        1 <0>         0.0000
     37 H10         0.7145   -0.4125    0.0000 HC        1 <0>         0.0000
     38 H11         0.8986    0.6320    0.0000 HC        1 <0>         0.0000
     39 H12         0.8986    0.6320    0.0000 HC        1 <0>         0.0000
     40 H13         0.8986    0.6320    0.0000 HC        1 <0>         0.0000
     41 H14         1.9592    0.6320    0.0000 HC        1 <0>         0.0000
     42 H15         1.9592    0.6320    0.0000 HC        1 <0>         0.0000
     43 H16         1.9592    0.6320    0.0000 HC        1 <0>         0.0000
     44 H17         2.8579    0.0000    0.0000 HA        1 <0>         0.0000
     45 H18         3.5724   -1.2375    0.0000 HA        1 <0>         0.0000
     46 H19         2.8579   -1.6500    0.0000 HA        1 <0>         0.0000
     47 H20         5.0013   -0.4125    0.0000 HA        1 <0>         0.0000
     48 H21         5.7158    0.0000    0.0000 HA        1 <0>         0.0000
     49 H22         7.1447    0.0000    0.0000 HA        1 <0>         0.0000
     50 H23         7.8592   -0.4125    0.0000 HA        1 <0>         0.0000
     51 H24         7.1447   -1.6500    0.0000 HA        1 <0>         0.0000
     52 H25         6.4302   -1.2375    0.0000 HA        1 <0>         0.0000
     53 H26         9.2881   -1.2375    0.0000 HO        1 <0>         0.0000
@<TRIPOS>BOND
     1    1    2 1
     2    2    3 1
     3    2    4 1
     4    4    5 1
     5    5    6 1
     6    6    7 1
     7    6    8 1
     8    6    9 1
     9    9   10 ar
    10   10   11 ar
    11   11   12 ar
    12   12   13 ar
    13   13   14 ar
    14    2   14 1
    15    9   14 ar
    16   11   15 1
    17   15   16 2
    18   15   17 1
    19   17   18 2
    20   18   19 1
    21   19   20 ar
    22   20   21 ar
    23   21   22 ar
    24   22   23 ar
    25   23   24 ar
    26   19   24 ar
    27   22   25 1
    28   25   26 1
    29   25   27 2
    30    1   28 1
    31    1   29 1
    32    1   30 1
    33    3   31 1
    34    3   32 1
    35    3   33 1
    36    4   34 1
    37    4   35 1
    38    5   36 1
    39    5   37 1
    40    7   38 1
    41    7   39 1
    42    7   40 1
    43    8   41 1
    44    8   42 1
    45    8   43 1
    46   10   44 1
    47   12   45 1
    48   13   46 1
    49   17   47 1
    50   18   48 1
    51   20   49 1
    52   21   50 1
    53   23   51 1
    54   24   52 1
    55   26   53 1
@<TRIPOS>MOLECULE
HFA
   22    22     0     0     0
SMALL
NO_CHARGES

@<TRIPOS>ATOM
      1 O1         -0.1575    1.2268    0.0000 OH        1 <0>         0.0000
      2 C1          0.5569    0.8143    0.0000 CT        1 <0>         0.0000
      3 C2          1.2714    1.2268    0.0000 C         1 <0>         0.0000
      4 O2          1.2714    2.0518    0.0000 O         1 <0>         0.0000
      5 C3          0.5569   -0.0107    0.0000 CT        1 <0>         0.0000
      6 C4         -0.1575   -0.4232    0.0000 CA        1 <0>         0.0000
      7 C5         -0.1575   -1.2482    0.0000 CA        1 <0>         0.0000
      8 C6         -0.8720   -0.0107    0.0000 CA        1 <0>         0.0000
      9 C7         -0.8720   -1.6607    0.0000 CA        1 <0>         0.0000
     10 C8         -1.5865   -0.4232    0.0000 CA        1 <0>         0.0000
     11 C9         -1.5865   -1.2482    0.0000 CA        1 <0>         0.0000
     12 O3          1.9859    0.8143    0.0000 OH        1 <0>         0.0000
     13 H1          0.5569    1.3983    0.0000 H1        1 <0>         0.0000
     14 H2         -0.1575    1.2268    0.0000 HO        1 <0>         0.0000
     15 H3          0.5569   -0.0107    0.0000 HC        1 <0>         0.0000
     16 H4          0.5569   -0.0107    0.0000 HC        1 <0>         0.0000
     17 H5         -0.1575   -1.2482    0.0000 HA        1 <0>         0.0000
     18 H6         -0.8720   -0.0107    0.0000 HA        1 <0>         0.0000
     19 H7         -0.8720   -1.6607    0.0000 HA        1 <0>         0.0000
     20 H8         -1.5865   -0.4232    0.0000 HA        1 <0>         0.0000
     21 H9         -1.5865   -1.2482    0.0000 HA        1 <0>         0.0000
     22 H10         1.9859    0.8143    0.0000 HO        1 <0>         0.0000
@<TRIPOS>BOND
     1    1    2 1
     2    2    3 1
     3    2    5 1
     4    2   13 1
     5    3    4 2
     6    3   12 1
     7    5    6 1
     8    6    7 ar
     9    6    8 ar
    10    7    9 ar
    11    8   10 ar
    12    9   11 ar
    13   10   11 ar
    14    1   14 1
    15    5   15 1
    16    5   16 1
    17    7   17 1
    18    8   18 1
    19    9   19 1
    20   10   20 1
    21   11   21 1
    22   12   22 1
@<TRIPOS>MOLECULE
SWF
   39    41     0     0     0
SMALL
NO_CHARGES

@<TRIPOS>ATOM
      1 C1         -1.0037    2.3428    0.0000 CT        1 <0>         0.0000
      2 C2         -1.0037    1.5178    0.0000 C         1 <0>         0.0000
      3 O1         -1.7181    1.1053    0.0000 O         1 <0>         0.0000
      4 C3         -0.2892    1.1053    0.0000 CT        1 <0>         0.0000
      5 C4         -0.2892    0.2803    0.0000 CT        1 <0>         0.0000
      6 C5         -1.0037   -0.1322    0.0000 CA        1 <0>         0.0000
      7 C6         -1.0037   -0.9572    0.0000 CA        1 <0>         0.0000
      8 C7         -1.7181   -1.3697    0.0000 CA        1 <0>         0.0000
      9 C8         -2.4326   -0.9572    0.0000 CA        1 <0>         0.0000
     10 C9         -2.4326   -0.1322    0.0000 CA        1 <0>         0.0000
     11 C10        -1.7181    0.2803    0.0000 CA        1 <0>         0.0000
     12 C11         0.4253   -0.1322    0.0000 CA        1 <0>         0.0000
     13 C12         1.1397    0.2803    0.0000 CA        1 <0>         0.0000
     14 O2          1.1397    1.1053    0.0000 OH        1 <0>         0.0000
     15 C13         1.8542   -0.1322    0.0000 CB        1 <0>         0.0000
     16 C14         2.5687    0.2803    0.0000 CA        1 <0>         0.0000
     17 C15         3.2831   -0.1322    0.0000 CA        1 <0>         0.0000
     18 C16         3.2831   -0.9572    0.0000 CA        1 <0>         0.0000
     19 C17         2.5687   -1.3697    0.0000 CA        1 <0>         0.0000
     20 C18         1.8542   -0.9572    0.0000 CB        1 <0>         0.0000
     21 O3          1.1397   -1.3697    0.0000 OS        1 <0>         0.0000
     22 C19         0.4253   -0.9572    0.0000 C         1 <0>         0.0000
     23 O4         -0.2892   -1.3697    0.0000 O         1 <0>         0.0000
     24 H1         -0.7949    0.5723    0.0000 HC        1 <0>         0.0000
     25 H2         -1.0037    2.3428    0.0000 HC        1 <0>         0.0000
     26 H3         -1.0037    2.3428    0.0000 HC        1 <0>         0.0000
     27 H4         -1.0037    2.3428    0.0000 HC        1 <0>         0.0000
     28 H5         -0.2892    1.1053    0.0000 HC        1 <0>         0.0000
     29 H6         -0.2892    1.1053    0.0000 HC        1 <0>         0.0000
     30 H7         -1.0037   -0.9572    0.0000 HA        1 <0>         0.0000
     31 H8         -1.7181   -1.3697    0.0000 HA        1 <0>         0.0000
     32 H9         -2.4326   -0.9572    0.0000 HA        1 <0>         0.0000
     33 H10        -2.4326   -0.1322    0.0000 HA        1 <0>         0.0000
     34 H11        -1.7181    0.2803    0.0000 HA        1 <0>         0.0000
     35 H12         1.1397    1.1053    0.0000 HO        1 <0>         0.0000
     36 H13         2.5687    0.2803    0.0000 HA        1 <0>         0.0000
     37 H14         3.2831   -0.1322    0.0000 HA        1 <0>         0.0000
     38 H15         3.2831   -0.9572    0.0000 HA        1 <0>         0.0000
     39 H16         2.5687   -1.3697    0.0000 HA        1 <0>         0.0000
@<TRIPOS>BOND
     1    1    2 1
     2    2    3 2
     3    2    4 1
     4    4    5 1
     5    5    6 1
     6    5   12 1
     7    5   24 1
     8    6    7 ar
     9    6   11 ar
    10    7    8 ar
    11    8    9 ar
    12    9   10 ar
    13   10   11 ar
    14   12   13 2
    15   12   22 1
    16   13   14 1
    17   13   15 1
    18   15   16 ar
    19   15   20 ar
    20   16   17 ar
    21   17   18 ar
    22   18   19 ar
    23   19   20 ar
    24   20   21 1
    25   21   22 1
    26   22   23 2
    27    1   25 1
    28    1   26 1
    29    1   27 1
    30    4   28 1
    31    4   29 1
    32    7   30 1
    33    8   31 1
    34    9   32 1
    35   10   33 1
    36   11   34 1
    37   14   35 1
    38   16   36 1
    39   17   37 1
    40   18   38 1
    41   19   39 1
@<TRIPOS>MOLECULE
FOH
   42    41     0     0     0
SMALL
NO_CHARGES

@<TRIPOS>ATOM
      1 C1         -1.9455   -0.7271    0.0000 CT        1 <0>         0.0000
      2 C2         -1.1206   -0.7271    0.0000 CM        1 <0>         0.0000
      3 C3         -0.7081   -0.0126    0.0000 CT        1 <0>         0.0000
      4 C4         -0.7081   -1.4414    0.0000 CM        1 <0>         0.0000
      5 C5          0.1169   -1.4414    0.0000 CT        1 <0>         0.0000
      6 C6          0.5293   -0.7271    0.0000 CT        1 <0>         0.0000
      7 C7          1.3543   -0.7271    0.0000 CM        1 <0>         0.0000
      8 C8          1.7668   -1.4414    0.0000 CT        1 <0>         0.0000
      9 C9          1.7668   -0.0126    0.0000 CM        1 <0>         0.0000
     10 C10         1.3543    0.7019    0.0000 CT        1 <0>         0.0000
     11 C11         0.5293    0.7019    0.0000 CT        1 <0>         0.0000
     12 C12         0.1169    1.4162    0.0000 CM        1 <0>         0.0000
     13 C13         0.5293    2.1307    0.0000 CT        1 <0>         0.0000
     14 C14        -0.7081    1.4162    0.0000 CM        1 <0>         0.0000
     15 C15        -1.1206    0.7019    0.0000 CT        1 <0>         0.0000
     16 O1         -1.9455    0.7019    0.0000 OH        1 <0>         0.0000
     17 H1         -1.9455   -0.7271    0.0000 HC        1 <0>         0.0000
     18 H2         -1.9455   -0.7271    0.0000 HC        1 <0>         0.0000
     19 H3         -1.9455   -0.7271    0.0000 HC        1 <0>         0.0000
     20 H4         -0.7081   -0.0126    0.0000 HC        1 <0>         0.0000
     21 H5         -0.7081   -0.0126    0.0000 HC        1 <0>         0.0000
     22 H6         -0.7081   -0.0126    0.0000 HC        1 <0>         0.0000
     23 H7         -0.7081   -1.4414    0.0000 HA        1 <0>         0.0000
     24 H8          0.1169   -1.4414    0.0000 HC        1 <0>         0.0000
     25 H9          0.1169   -1.4414    0.0000 HC        1 <0>         0.0000
     26 H10         0.5293   -0.7271    0.0000 HC        1 <0>         0.0000
     27 H11         0.5293   -0.7271    0.0000 HC        1 <0>         0.0000
     28 H12         1.7668   -1.4414    0.0000 HC        1 <0>         0.0000
     29 H13         1.7668   -1.4414    0.0000 HC        1 <0>         0.0000
     30 H14         1.7668   -1.4414    0.0000 HC        1 <0>         0.0000
     31 H15         1.7668   -0.0126    0.0000 HA        1 <0>         0.0000
     32 H16         1.3543    0.7019    0.0000 HC        1 <0>         0.0000
     33 H17         1.3543    0.7019    0.0000 HC        1 <0>         0.0000
     34 H18         0.5293    0.7019    0.0000 HC        1 <0>         0.0000
     35 H19         0.5293    0.7019    0.0000 HC        1 <0>         0.0000
     36 H20         0.5293    2.1307    0.0000 HC        1 <0>         0.0000
     37 H21         0.5293    2.1307    0.0000 HC        1 <0>         0.0000
     38 H22         0.5293    2.1307    0.0000 HC        1 <0>         0.0000
     39 H23        -0.7081    1.4162    0.0000 HA        1 <0>         0.0000
     40 H24        -1.1206    0.7019    0.0000 H1        1 <0>         0.0000
     41 H25        -1.1206    0.7019    0.0000 H1        1 <0>         0.0000
     42 H26        -1.9455    0.7019    0.0000 HO        1 <0>         0.0000
@<TRIPOS>BOND
     1    1    2 1
     2    2    3 1
     3    2    4 2
     4    4    5 1
     5    5    6 1
     6    6    7 1
     7    7    8 1
     8    7    9 2
     9    9   10 1
    10   10   11 1
    11   11   12 1
    12   12   13 1
    13   12   14 2
    14   14   15 1
    15   15   16 1
    16    1   17 1
    17    1   18 1
    18    1   19 1
    19    3   20 1
    20    3   21 1
    21    3   22 1
    22    4   23 1
    23    5   24 1
    24    5   25 1
    25    6   26 1
    26    6   27 1
    27    8   28 1
    28    8   29 1
    29    8   30 1
    30    9   31 1
    31   10   32 1
    32   10   33 1
    33   11   34 1
    34   11   35 1
    35   13   36 1
    36   13   37 1
    37   13   38 1
    38   14   39 1
    39   15   40 1
    40   15   41 1
    41   16   42 1
@<TRIPOS>MOLECULE
Thymol
   25    25     0     0     0
SMALL
NO_CHARGES

  Marvin  09140623232D          
@<TRIPOS>ATOM
      1 C1         -0.1299   -0.3750    0.0000 CA        1 <0>         0.0000
      2 C2          0.5846    0.0375    0.0000 CA        1 <0>         0.0000
      3 C3         -0.8444    0.0375    0.0000 CA        1 <0>         0.0000
      4 C4         -0.1299   -1.2000    0.0000 CT        1 <0>         0.0000
      5 C5          0.5846    0.8625    0.0000 CA        1 <0>         0.0000
      6 O1          1.2990   -0.3750    0.0000 OH        1 <0>         0.0000
      7 C6         -0.8444    0.8625    0.0000 CA        1 <0>         0.0000
      8 C7         -0.8444   -1.6125    0.0000 CT        1 <0>         0.0000
      9 C8          0.5846   -1.6125    0.0000 CT        1 <0>         0.0000
     10 C9         -0.1299    1.2750    0.0000 CA        1 <0>         0.0000
     11 C10        -0.1299    2.1000    0.0000 CT        1 <0>         0.0000
     12 H1         -0.8444    0.0375    0.0000 HA        1 <0>         0.0000
     13 H2         -0.1299   -1.2000    0.0000 HC        1 <0>         0.0000
     14 H3          0.5846    0.8625    0.0000 HA        1 <0>         0.0000
     15 H4          1.2990   -0.3750    0.0000 HO        1 <0>         0.0000
     16 H5         -0.8444    0.8625    0.0000 HA        1 <0>         0.0000
     17 H6         -0.8444   -1.6125    0.0000 HC        1 <0>         0.0000
     18 H7         -0.8444   -1.6125    0.0000 HC        1 <0>         0.0000
     19 H8         -0.8444   -1.6125    0.0000 HC        1 <0>         0.0000
     20 H9          0.5846   -1.6125    0.0000 HC        1 <0>         0.0000
     21 H10         0.5846   -1.6125    0.0000 HC        1 <0>         0.0000
     22 H11         0.5846   -1.6125    0.0000 HC        1 <0>         0.0000
     23 H12        -0.1299    2.1000    0.0000 HC        1 <0>         0.0000
     24 H13        -0.1299    2.1000    0.0000 HC        1 <0>         0.0000
     25 H14        -0.1299    2.1000    0.0000 HC        1 <0>         0.0000
@<TRIPOS>BOND
     1    1    2 ar
     2    1    3 ar
     3    1    4 1
     4    2    5 ar
     5    2    6 1
     6    3    7 ar
     7    4    8 1
     8    4    9 1
     9    5   10 ar
    10   10   11 1
    11    7   10 ar
    12    3   12 1
    13    4   13 1
    14    5   14 1
    15    6   15 1
    16    7   16 1
    17    8   17 1
    18    8   18 1
    19    8   19 1
    20    9   20 1
    21    9   21 1
    22    9   22 1
    23   11   23 1
    24   11   24 1
    25   11   25 1
@<TRIPOS>MOLECULE
FLV
   21    22     0     0     0
SMALL
NO_CHARGES

@<TRIPOS>ATOM
      1 O1         -0.7393    1.6497    0.0000 O         1 <0>         0.0000
      2 C1         -0.7393    0.8247    0.0000 C         1 <0>         0.0000
      3 C2         -0.0248    0.4122    0.0000 CB        1 <0>         0.0000
      4 C3          0.6896    0.8247    0.0000 CA        1 <0>         0.0000
      5 C4          1.4041    0.4122    0.0000 CA        1 <0>         0.0000
      6 O2          2.1186    0.8247    0.0000 OH        1 <0>         0.0000
      7 C5          1.4041   -0.4128    0.0000 CA        1 <0>         0.0000
      8 C6          0.6896   -0.8253    0.0000 CA        1 <0>         0.0000
      9 O3          0.6896   -1.6503    0.0000 OH        1 <0>         0.0000
     10 C7         -0.0248   -0.4128    0.0000 CB        1 <0>         0.0000
     11 C8         -0.7393   -0.8253    0.0000 C         1 <0>         0.0000
     12 O4         -0.7393   -1.6503    0.0000 O         1 <0>         0.0000
     13 C9         -1.4538   -0.4128    0.0000 CA        1 <0>         0.0000
     14 C10        -1.4538    0.4122    0.0000 CA        1 <0>         0.0000
     15 O5         -2.1683    0.8247    0.0000 OH        1 <0>         0.0000
     16 H1          0.6896    0.8247    0.0000 HA        1 <0>         0.0000
     17 H2          2.1186    0.8247    0.0000 HO        1 <0>         0.0000
     18 H3          1.4041   -0.4128    0.0000 HA        1 <0>         0.0000
     19 H4          0.6896   -1.6503    0.0000 HO        1 <0>         0.0000
     20 H5         -1.4538   -0.4128    0.0000 HA        1 <0>         0.0000
     21 H6         -2.1683    0.8247    0.0000 HO        1 <0>         0.0000
@<TRIPOS>BOND
     1    1    2 2
     2    2    3 1
     3    2   14 1
     4    3    4 ar
     5    3   10 ar
     6    4    5 ar
     7    5    6 1
     8    5    7 ar
     9    7    8 ar
    10    8    9 1
    11    8   10 ar
    12   10   11 1
    13   11   12 2
    14   11   13 1
    15   13   14 2
    16   14   15 1
    17    4   16 1
    18    6   17 1
    19    7   18 1
    20    9   19 1
    21   13   20 1
    22   15   21 1
@<TRIPOS>MOLECULE
*****
   14    13     0     0     0
SMALL
NO_CHARGES

@<TRIPOS>ATOM
      1 C1          0.8250    1.4289    0.0000 CT        1 <0>         0.0000
      2 C2          1.2375    0.7145    0.0000 CT        1 <0>         0.0000
      3 C3          2.0625    0.7145    0.0000 CT        1 <0>         0.0000
      4 C4          0.8250    0.0000    0.0000 C         1 <0>         0.0000
      5 O1          1.2375   -0.7145    0.0000 OH        1 <0>         0.0000
      6 O2          0.0000    0.0000    0.0000 O         1 <0>         0.0000
      7 H1          0.8250    1.4289    0.0000 HC        1 <0>         0.0000
      8 H2          0.8250    1.4289    0.0000 HC        1 <0>         0.0000
      9 H3          0.8250    1.4289    0.0000 HC        1 <0>         0.0000
     10 H4          1.2375    0.7145    0.0000 HC        1 <0>         0.0000
     11 H5          2.0625    0.7145    0.0000 HC        1 <0>         0.0000
     12 H6          2.0625    0.7145    0.0000 HC        1 <0>         0.0000
     13 H7          2.0625    0.7145    0.0000 HC        1 <0>         0.0000
     14 H8          1.2375   -0.7145    0.0000 HO        1 <0>         0.0000
@<TRIPOS>BOND
     1    1    2 1
     2    2    3 1
     3    2    4 1
     4    4    5 1
     5    4    6 2
     6    1    7 1
     7    1    8 1
     8    1    9 1
     9    2   10 1
    10    3   11 1
    11    3   12 1
    12    3   13 1
    13    5   14 1
@<TRIPOS>MOLECULE
*****
   20    20     0     0     0
SMALL
NO_CHARGES

@<TRIPOS>ATOM
      1 O1          2.1434    1.2375    0.0000 OH        1 <0>         0.0000
      2 C1          1.4289    0.8250    0.0000 CA        1 <0>         0.0000
      3 C2          1.4289    0.0000    0.0000 CA        1 <0>         0.0000
      4 C3          0.7145   -0.4125    0.0000 CA        1 <0>         0.0000
      5 C4          0.0000    0.0000    0.0000 CA        1 <0>         0.0000
      6 C5          0.0000    0.8250    0.0000 CA        1 <0>         0.0000
      7 C6          0.7145    1.2375    0.0000 CA        1 <0>         0.0000
      8 C7          0.7145    2.0625    0.0000 CT        1 <0>         0.0000
      9 C8          1.4289    2.4750    0.0000 CM        1 <0>         0.0000
     10 C9          1.4289    3.3000    0.0000 CM        1 <0>         0.0000
     11 H1          2.1434    1.2375    0.0000 HO        1 <0>         0.0000
     12 H2          1.4289    0.0000    0.0000 HA        1 <0>         0.0000
     13 H3          0.7145   -0.4125    0.0000 HA        1 <0>         0.0000
     14 H4          0.0000    0.0000    0.0000 HA        1 <0>         0.0000
     15 H5          0.0000    0.8250    0.0000 HA        1 <0>         0.0000
     16 H6          0.7145    2.0625    0.0000 HC        1 <0>         0.0000
     17 H7          0.7145    2.0625    0.0000 HC        1 <0>         0.0000
     18 H8          1.4289    2.4750    0.0000 HA        1 <0>         0.0000
     19 H9          1.4289    3.3000    0.0000 HA        1 <0>         0.0000
     20 H10         1.4289    3.3000    0.0000 HA        1 <0>         0.0000
@<TRIPOS>BOND
     1    1    2 1
     2    2    3 ar
     3    3    4 ar
     4    4    5 ar
     5    5    6 ar
     6    6    7 ar
     7    2    7 ar
     8    7    8 1
     9    8    9 1
    10    9   10 2
    11    1   11 1
    12    3   12 1
    13    4   13 1
    14    5   14 1
    15    6   15 1
    16    8   16 1
    17    8   17 1
    18    9   18 1
    19   10   19 1
    20   10   20 1
@<TRIPOS>MOLECULE
*****
   12    11     0     0     0
SMALL
NO_CHARGES

@<TRIPOS>ATOM
      1 O1          2.4750   -1.4289    0.0000 OH        1 <0>         0.0000
      2 C1          2.0625   -0.7145    0.0000 CT        1 <0>         0.0000
      3 C2          1.2375   -0.7145    0.0000 CT        1 <0>         0.0000
      4 O2          0.8250   -1.4289    0.0000 OH        1 <0>         0.0000
      5 C3          0.8250    0.0000    0.0000 C         1 <0>         0.0000
      6 O3          0.0000    0.0000    0.0000 O         1 <0>         0.0000
      7 H1          2.4750   -1.4289    0.0000 HO        1 <0>         0.0000
      8 H2          2.0625   -0.7145    0.0000 H1        1 <0>         0.0000
      9 H3          2.0625   -0.7145    0.0000 H1        1 <0>         0.0000
     10 H4          1.2375   -0.7145    0.0000 H1        1 <0>         0.0000
     11 H5          0.8250   -1.4289    0.0000 HO        1 <0>         0.0000
     12 H6          0.8250    0.0000    0.0000 H4        1 <0>         0.0000
@<TRIPOS>BOND
     1    1    2 1
     2    2    3 1
     3    3    4 1
     4    3    5 1
     5    5    6 2
     6    1    7 1
     7    2    8 1
     8    2    9 1
     9    3   10 1
    10    4   11 1
    11    5   12 1
@<TRIPOS>MOLECULE
*****
   24    24     0     0     0
SMALL
NO_CHARGES

@<TRIPOS>ATOM
      1 O1          2.0572    1.7262    0.0000 OH        1 <0>         0.0000
      2 C1          1.2448    1.8695    0.0000 CT        1 <0>         0.0000
      3 C2          0.7145    1.2375    0.0000 CT        1 <0>         0.0000
      4 O2          0.1842    1.8695    0.0000 OH        1 <0>         0.0000
      5 O3          1.4289    0.8250    0.0000 OS        1 <0>         0.0000
      6 C3          1.4289    0.0000    0.0000 CT        1 <0>         0.0000
      7 C4          0.7145   -0.4125    0.0000 CT        1 <0>         0.0000
      8 O4          0.7145   -1.2375    0.0000 OH        1 <0>         0.0000
      9 C5          0.0000    0.0000    0.0000 CT        1 <0>         0.0000
     10 O5         -0.7145   -0.4125    0.0000 OH        1 <0>         0.0000
     11 C6          0.0000    0.8250    0.0000 CT        1 <0>         0.0000
     12 O6         -0.7145    1.2375    0.0000 OH        1 <0>         0.0000
     13 H1          2.0572    1.7262    0.0000 HO        1 <0>         0.0000
     14 H2          1.2448    1.8695    0.0000 H1        1 <0>         0.0000
     15 H3          1.2448    1.8695    0.0000 H1        1 <0>         0.0000
     16 H4          0.1842    1.8695    0.0000 HO        1 <0>         0.0000
     17 H5          1.4289    0.0000    0.0000 H1        1 <0>         0.0000
     18 H6          1.4289    0.0000    0.0000 H1        1 <0>         0.0000
     19 H7          0.7145   -0.4125    0.0000 H1        1 <0>         0.0000
     20 H8          0.7145   -1.2375    0.0000 HO        1 <0>         0.0000
     21 H9          0.0000    0.0000    0.0000 H1        1 <0>         0.0000
     22 H10        -0.7145   -0.4125    0.0000 HO        1 <0>         0.0000
     23 H11         0.0000    0.8250    0.0000 H1        1 <0>         0.0000
     24 H12        -0.7145    1.2375    0.0000 HO        1 <0>         0.0000
@<TRIPOS>BOND
     1    1    2 1
     2    2    3 1
     3    3    4 1
     4    3    5 1
     5    5    6 1
     6    6    7 1
     7    7    8 1
     8    7    9 1
     9    9   10 1
    10    9   11 1
    11    3   11 1
    12   11   12 1
    13    1   13 1
    14    2   14 1
    15    2   15 1
    16    4   16 1
    17    6   17 1
    18    6   18 1
    19    7   19 1
    20    8   20 1
    21    9   21 1
    22   10   22 1
    23   11   23 1
    24   12   24 1
@<TRIPOS>MOLECULE
*****
    9     8     0     0     0
SMALL
NO_CHARGES

@<TRIPOS>ATOM
      1 O1          2.0625   -0.7145    0.0000 OH        1 <0>         0.0000
      2 C1          1.2375   -0.7145    0.0000 C         1 <0>         0.0000
      3 O2          0.8250   -1.4289    0.0000 O         1 <0>         0.0000
      4 C2          0.8250    0.0000    0.0000 CM        1 <0>         0.0000
      5 C3          0.0000    0.0000    0.0000 CM        1 <0>         0.0000
      6 H1          2.0625   -0.7145    0.0000 HO        1 <0>         0.0000
      7 H2          0.8250    0.0000    0.0000 HA        1 <0>         0.0000
      8 H3          0.0000    0.0000    0.0000 HA        1 <0>         0.0000
      9 H4          0.0000    0.0000    0.0000 HA        1 <0>         0.0000
@<TRIPOS>BOND
     1    1    2 1
     2    2    3 2
     3    2    4 1
     4    4    5 2
     5    1    6 1
     6    4    7 1
     7    5    8 1
     8    5    9 1
@<TRIPOS>MOLECULE
PG6
   44    43     0     0     0
SMALL
NO_CHARGES

@<TRIPOS>ATOM
      1 C1         -6.0735   -0.1554    0.0000 CT        1 <0>         0.0000
      2 O1         -5.3590    0.2571    0.0000 OS        1 <0>         0.0000
      3 C2         -4.6444   -0.1554    0.0000 CT        1 <0>         0.0000
      4 C3         -3.9299    0.2571    0.0000 CT        1 <0>         0.0000
      5 O2         -3.2153   -0.1554    0.0000 OS        1 <0>         0.0000
      6 C4         -2.5009    0.2571    0.0000 CT        1 <0>         0.0000
      7 C5         -1.7863   -0.1554    0.0000 CT        1 <0>         0.0000
      8 O3         -1.0718    0.2571    0.0000 OS        1 <0>         0.0000
      9 C6         -0.3573   -0.1554    0.0000 CT        1 <0>         0.0000
     10 C7          0.3572    0.2571    0.0000 CT        1 <0>         0.0000
     11 O4          1.0718   -0.1554    0.0000 OS        1 <0>         0.0000
     12 C8          1.7863    0.2571    0.0000 CT        1 <0>         0.0000
     13 C9          2.5008   -0.1554    0.0000 CT        1 <0>         0.0000
     14 O5          3.2153    0.2571    0.0000 OS        1 <0>         0.0000
     15 C10         3.9299   -0.1554    0.0000 CT        1 <0>         0.0000
     16 C11         4.6443    0.2571    0.0000 CT        1 <0>         0.0000
     17 O6          5.3589   -0.1554    0.0000 OS        1 <0>         0.0000
     18 C12         6.0735    0.2571    0.0000 CT        1 <0>         0.0000
     19 H1         -6.0735   -0.1554    0.0000 H1        1 <0>         0.0000
     20 H2         -6.0735   -0.1554    0.0000 H1        1 <0>         0.0000
     21 H3         -6.0735   -0.1554    0.0000 H1        1 <0>         0.0000
     22 H4         -4.6444   -0.1554    0.0000 H1        1 <0>         0.0000
     23 H5         -4.6444   -0.1554    0.0000 H1        1 <0>         0.0000
     24 H6         -3.9299    0.2571    0.0000 H1        1 <0>         0.0000
     25 H7         -3.9299    0.2571    0.0000 H1        1 <0>         0.0000
     26 H8         -2.5009    0.2571    0.0000 H1        1 <0>         0.0000
     27 H9         -2.5009    0.2571    0.0000 H1        1 <0>         0.0000
     28 H10        -1.7863   -0.1554    0.0000 H1        1 <0>         0.0000
     29 H11        -1.7863   -0.1554    0.0000 H1        1 <0>         0.0000
     30 H12        -0.3573   -0.1554    0.0000 H1        1 <0>         0.0000
     31 H13        -0.3573   -0.1554    0.0000 H1        1 <0>         0.0000
     32 H14         0.3572    0.2571    0.0000 H1        1 <0>         0.0000
     33 H15         0.3572    0.2571    0.0000 H1        1 <0>         0.0000
     34 H16         1.7863    0.2571    0.0000 H1        1 <0>         0.0000
     35 H17         1.7863    0.2571    0.0000 H1        1 <0>         0.0000
     36 H18         2.5008   -0.1554    0.0000 H1        1 <0>         0.0000
     37 H19         2.5008   -0.1554    0.0000 H1        1 <0>         0.0000
     38 H20         3.9299   -0.1554    0.0000 H1        1 <0>         0.0000
     39 H21         3.9299   -0.1554    0.0000 H1        1 <0>         0.0000
     40 H22         4.6443    0.2571    0.0000 H1        1 <0>         0.0000
     41 H23         4.6443    0.2571    0.0000 H1        1 <0>         0.0000
     42 H24         6.0735    0.2571    0.0000 H1        1 <0>         0.0000
     43 H25         6.0735    0.2571    0.0000 H1        1 <0>         0.0000
     44 H26         6.0735    0.2571    0.0000 H1        1 <0>         0.0000
@<TRIPOS>BOND
     1    1    2 1
     2    2    3 1
     3    3    4 1
     4    4    5 1
     5    5    6 1
     6    6    7 1
     7    7    8 1
     8    8    9 1
     9    9   10 1
    10   10   11 1
    11   11   12 1
    12   12   13 1
    13   13   14 1
    14   14   15 1
    15   15   16 1
    16   16   17 1
    17   17   18 1
    18    1   19 1
    19    1   20 1
    20    1   21 1
    21    3   22 1
    22    3   23 1
    23    4   24 1
    24    4   25 1
    25    6   26 1
    26    6   27 1
    27    7   28 1
    28    7   29 1
    29    9   30 1
    30    9   31 1
    31   10   32 1
    32   10   33 1
    33   12   34 1
    34   12   35 1
    35   13   36 1
    36   13   37 1
    37   15   38 1
    38   15   39 1
    39   16   40 1
    40   16   41 1
    41   18   42 1
    42   18   43 1
    43   18   44 1
@<TRIPOS>MOLECULE
FOK
   63    65     0     0     0
SMALL
NO_CHARGES

@<TRIPOS>ATOM
      1 C1         -0.9188   -1.3028    0.0000 CT        1 <0>         0.0000
      2 O1         -0.5063   -2.0173    0.0000 OH        1 <0>         0.0000
      3 C2         -1.7438   -1.3028    0.0000 CT        1 <0>         0.0000
      4 C3         -2.1563   -0.5884    0.0000 CT        1 <0>         0.0000
      5 C4         -1.7438    0.1261    0.0000 CT        1 <0>         0.0000
      6 C5         -0.9188    0.1261    0.0000 CT        1 <0>         0.0000
      7 C6         -0.5063    0.8406    0.0000 CT        1 <0>         0.0000
      8 O2         -0.9188    1.5551    0.0000 OH        1 <0>         0.0000
      9 C7          0.3187    0.8406    0.0000 CT        1 <0>         0.0000
     10 O3          0.7312    1.5551    0.0000 OS        1 <0>         0.0000
     11 C8          0.7312    0.1261    0.0000 CT        1 <0>         0.0000
     12 O4          1.5562    0.1261    0.0000 OS        1 <0>         0.0000
     13 C9          0.3187   -0.5884    0.0000 CT        1 <0>         0.0000
     14 O5         -0.0938   -1.3028    0.0000 OH        1 <0>         0.0000
     15 C10        -0.5063   -0.5884    0.0000 CT        1 <0>         0.0000
     16 C11         0.7312   -1.3028    0.0000 C         1 <0>         0.0000
     17 O6          0.3187   -2.0173    0.0000 O         1 <0>         0.0000
     18 C12         1.5562   -1.3028    0.0000 CT        1 <0>         0.0000
     19 C13         1.9687   -0.5884    0.0000 CT        1 <0>         0.0000
     20 C14         2.6971   -0.9757    0.0000 CM        1 <0>         0.0000
     21 C15         2.7259   -1.8002    0.0000 CM        1 <0>         0.0000
     22 C16         2.6971   -0.2010    0.0000 CT        1 <0>         0.0000
     23 C17         1.1437    0.8406    0.0000 CT        1 <0>         0.0000
     24 C18        -2.4435    0.5633    0.0000 CT        1 <0>         0.0000
     25 C19        -1.7726    0.9506    0.0000 CT        1 <0>         0.0000
     26 C20        -0.5926   -1.4088    0.0000 CT        1 <0>         0.0000
     27 C21         0.3187    2.2695    0.0000 C         1 <0>         0.0000
     28 O7         -0.5063    2.2695    0.0000 O         1 <0>         0.0000
     29 C22         0.7312    2.9840    0.0000 CT        1 <0>         0.0000
     30 H1         -1.3661   -1.6782    0.0000 H1        1 <0>         0.0000
     31 H2         -1.3661    0.5015    0.0000 HC        1 <0>         0.0000
     32 H3         -0.9536    1.2159    0.0000 H1        1 <0>         0.0000
     33 H4          0.0267    1.3463    0.0000 H1        1 <0>         0.0000
     34 H5         -0.5063   -2.0173    0.0000 HO        1 <0>         0.0000
     35 H6         -1.7438   -1.3028    0.0000 HC        1 <0>         0.0000
     36 H7         -1.7438   -1.3028    0.0000 HC        1 <0>         0.0000
     37 H8         -2.1563   -0.5884    0.0000 HC        1 <0>         0.0000
     38 H9         -2.1563   -0.5884    0.0000 HC        1 <0>         0.0000
     39 H10        -0.9188    1.5551    0.0000 HO        1 <0>         0.0000
     40 H11        -0.0938   -1.3028    0.0000 HO        1 <0>         0.0000
     41 H12         1.5562   -1.3028    0.0000 HC        1 <0>         0.0000
     42 H13         1.5562   -1.3028    0.0000 HC        1 <0>         0.0000
     43 H14         2.6971   -0.9757    0.0000 HA        1 <0>         0.0000
     44 H15         2.7259   -1.8002    0.0000 HA        1 <0>         0.0000
     45 H16         2.7259   -1.8002    0.0000 HA        1 <0>         0.0000
     46 H17         2.6971   -0.2010    0.0000 HC        1 <0>         0.0000
     47 H18         2.6971   -0.2010    0.0000 HC        1 <0>         0.0000
     48 H19         2.6971   -0.2010    0.0000 HC        1 <0>         0.0000
     49 H20         1.1437    0.8406    0.0000 HC        1 <0>         0.0000
     50 H21         1.1437    0.8406    0.0000 HC        1 <0>         0.0000
     51 H22         1.1437    0.8406    0.0000 HC        1 <0>         0.0000
     52 H23        -2.4435    0.5633    0.0000 HC        1 <0>         0.0000
     53 H24        -2.4435    0.5633    0.0000 HC        1 <0>         0.0000
     54 H25        -2.4435    0.5633    0.0000 HC        1 <0>         0.0000
     55 H26        -1.7726    0.9506    0.0000 HC        1 <0>         0.0000
     56 H27        -1.7726    0.9506    0.0000 HC        1 <0>         0.0000
     57 H28        -1.7726    0.9506    0.0000 HC        1 <0>         0.0000
     58 H29        -0.5926   -1.4088    0.0000 HC        1 <0>         0.0000
     59 H30        -0.5926   -1.4088    0.0000 HC        1 <0>         0.0000
     60 H31        -0.5926   -1.4088    0.0000 HC        1 <0>         0.0000
     61 H32         0.7312    2.9840    0.0000 HC        1 <0>         0.0000
     62 H33         0.7312    2.9840    0.0000 HC        1 <0>         0.0000
     63 H34         0.7312    2.9840    0.0000 HC        1 <0>         0.0000
@<TRIPOS>BOND
     1    1    2 1
     2    1    3 1
     3    1   15 1
     4    1   30 1
     5    3    4 1
     6    4    5 1
     7    5    6 1
     8    5   24 1
     9    5   25 1
    10    6    7 1
    11    6   15 1
    12    6   31 1
    13    7    8 1
    14    7    9 1
    15    7   32 1
    16    9   10 1
    17    9   11 1
    18    9   33 1
    19   10   27 1
    20   11   12 1
    21   11   13 1
    22   11   23 1
    23   12   19 1
    24   13   14 1
    25   13   15 1
    26   13   16 1
    27   15   26 1
    28   16   17 2
    29   16   18 1
    30   18   19 1
    31   19   20 1
    32   19   22 1
    33   20   21 2
    34   27   28 2
    35   27   29 1
    36    2   34 1
    37    3   35 1
    38    3   36 1
    39    4   37 1
    40    4   38 1
    41    8   39 1
    42   14   40 1
    43   18   41 1
    44   18   42 1
    45   20   43 1
    46   21   44 1
    47   21   45 1
    48   22   46 1
    49   22   47 1
    50   22   48 1
    51   23   49 1
    52   23   50 1
    53   23   51 1
    54   24   52 1
    55   24   53 1
    56   24   54 1
    57   25   55 1
    58   25   56 1
    59   25   57 1
    60   26   58 1
    61   26   59 1
    62   26   60 1
    63   29   61 1
    64   29   62 1
    65   29   63 1
@<TRIPOS>MOLECULE
*****
   22    22     0     0     0
SMALL
NO_CHARGES

@<TRIPOS>ATOM
      1 C1          2.1434    1.2375    0.0000 CT        1 <0>         0.0000
      2 C2          1.4289    0.8250    0.0000 CT        1 <0>         0.0000
      3 O1          1.4289    0.0000    0.0000 OS        1 <0>         0.0000
      4 C3          0.7145   -0.4125    0.0000 CT        1 <0>         0.0000
      5 O2          0.7145   -1.2375    0.0000 OH        1 <0>         0.0000
      6 C4          0.0000    0.0000    0.0000 CT        1 <0>         0.0000
      7 O3         -0.7145   -0.4125    0.0000 OH        1 <0>         0.0000
      8 C5          0.0000    0.8250    0.0000 CT        1 <0>         0.0000
      9 C6          0.7145    1.2375    0.0000 CT        1 <0>         0.0000
     10 O4          0.7145    2.0625    0.0000 OH        1 <0>         0.0000
     11 H1          2.1434    1.2375    0.0000 HC        1 <0>         0.0000
     12 H2          2.1434    1.2375    0.0000 HC        1 <0>         0.0000
     13 H3          2.1434    1.2375    0.0000 HC        1 <0>         0.0000
     14 H4          1.4289    0.8250    0.0000 H1        1 <0>         0.0000
     15 H5          0.7145   -0.4125    0.0000 H2        1 <0>         0.0000
     16 H6          0.7145   -1.2375    0.0000 HO        1 <0>         0.0000
     17 H7          0.0000    0.0000    0.0000 H1        1 <0>         0.0000
     18 H8         -0.7145   -0.4125    0.0000 HO        1 <0>         0.0000
     19 H9          0.0000    0.8250    0.0000 HC        1 <0>         0.0000
     20 H10         0.0000    0.8250    0.0000 HC        1 <0>         0.0000
     21 H11         0.7145    1.2375    0.0000 H1        1 <0>         0.0000
     22 H12         0.7145    2.0625    0.0000 HO        1 <0>         0.0000
@<TRIPOS>BOND
     1    1    2 1
     2    2    3 1
     3    3    4 1
     4    4    5 1
     5    4    6 1
     6    6    7 1
     7    6    8 1
     8    8    9 1
     9    2    9 1
    10    9   10 1
    11    1   11 1
    12    1   12 1
    13    1   13 1
    14    2   14 1
    15    4   15 1
    16    5   16 1
    17    6   17 1
    18    7   18 1
    19    8   19 1
    20    8   20 1
    21    9   21 1
    22   10   22 1
@<TRIPOS>MOLECULE
113
   37    39     0     0     0
SMALL
NO_CHARGES

@<TRIPOS>ATOM
      1 C1          2.4567    0.7895    0.0000 CA        1 <0>         0.0000
      2 C2          1.7422    1.2020    0.0000 CA        1 <0>         0.0000
      3 C3          1.0278    0.7895    0.0000 CB        1 <0>         0.0000
      4 C4          1.0278   -0.0355    0.0000 CB        1 <0>         0.0000
      5 C5          1.7422   -0.4480    0.0000 CA        1 <0>         0.0000
      6 C6          2.4567   -0.0355    0.0000 CA        1 <0>         0.0000
      7 O1          0.3133    1.2020    0.0000 OS        1 <0>         0.0000
      8 C7         -0.4012    0.7895    0.0000 CA        1 <0>         0.0000
      9 C8         -0.4012   -0.0355    0.0000 CA        1 <0>         0.0000
     10 C9          0.3133   -0.4480    0.0000 C         1 <0>         0.0000
     11 C10        -1.1156    1.2020    0.0000 CT        1 <0>         0.0000
     12 C11        -1.8301    0.7895    0.0000 CT        1 <0>         0.0000
     13 O2         -1.8301   -0.0355    0.0000 OS        1 <0>         0.0000
     14 C12        -1.1156   -0.4480    0.0000 CT        1 <0>         0.0000
     15 O3          3.1712   -0.4480    0.0000 OH        1 <0>         0.0000
     16 O4          3.1712    1.2020    0.0000 OH        1 <0>         0.0000
     17 C13         1.7422   -1.2730    0.0000 C         1 <0>         0.0000
     18 O5          2.4567   -1.6855    0.0000 OH        1 <0>         0.0000
     19 O6         -1.1156   -1.2730    0.0000 OS        1 <0>         0.0000
     20 C14        -1.8301   -1.6855    0.0000 CT        1 <0>         0.0000
     21 C15        -2.5446    1.2020    0.0000 CT        1 <0>         0.0000
     22 O7          1.0278   -1.6855    0.0000 O         1 <0>         0.0000
     23 O8          0.3133   -1.2730    0.0000 O         1 <0>         0.0000
     24 H1         -1.8301    1.3734    0.0000 H1        1 <0>         0.0000
     25 H2         -0.6099   -0.7400    0.0000 H2        1 <0>         0.0000
     26 H3          1.7422    1.2020    0.0000 HA        1 <0>         0.0000
     27 H4         -1.1156    1.2020    0.0000 HC        1 <0>         0.0000
     28 H5         -1.1156    1.2020    0.0000 HC        1 <0>         0.0000
     29 H6          3.1712   -0.4480    0.0000 HO        1 <0>         0.0000
     30 H7          3.1712    1.2020    0.0000 HO        1 <0>         0.0000
     31 H8          2.4567   -1.6855    0.0000 HO        1 <0>         0.0000
     32 H9         -1.8301   -1.6855    0.0000 H1        1 <0>         0.0000
     33 H10        -1.8301   -1.6855    0.0000 H1        1 <0>         0.0000
     34 H11        -1.8301   -1.6855    0.0000 H1        1 <0>         0.0000
     35 H12        -2.5446    1.2020    0.0000 HC        1 <0>         0.0000
     36 H13        -2.5446    1.2020    0.0000 HC        1 <0>         0.0000
     37 H14        -2.5446    1.2020    0.0000 HC        1 <0>         0.0000
@<TRIPOS>BOND
     1    1    2 ar
     2    1    6 ar
     3    1   16 1
     4    2    3 ar
     5    3    4 ar
     6    3    7 1
     7    4    5 ar
     8    4   10 1
     9    5    6 ar
    10    5   17 1
    11    6   15 1
    12    7    8 1
    13    8    9 2
    14    8   11 1
    15    9   10 1
    16    9   14 1
    17   10   23 2
    18   11   12 1
    19   12   13 1
    20   12   21 1
    21   12   24 1
    22   13   14 1
    23   14   19 1
    24   14   25 1
    25   17   18 1
    26   17   22 2
    27   19   20 1
    28    2   26 1
    29   11   27 1
    30   11   28 1
    31   15   29 1
    32   16   30 1
    33   18   31 1
    34   20   32 1
    35   20   33 1
    36   20   34 1
    37   21   35 1
    38   21   36 1
    39   21   37 1
@<TRIPOS>MOLECULE
*****
   15    14     0     0     0
SMALL
NO_CHARGES

@<TRIPOS>ATOM
      1 C1          0.8250    1.4289    0.0000 CT        1 <0>         0.0000
      2 C2          1.2375    0.7145    0.0000 CT        1 <0>         0.0000
      3 C3          0.8250    0.0000    0.0000 CT        1 <0>         0.0000
      4 C4          1.2375   -0.7145    0.0000 CT        1 <0>         0.0000
      5 O1          0.0000    0.0000    0.0000 OH        1 <0>         0.0000
      6 H1          0.8250    1.4289    0.0000 HC        1 <0>         0.0000
      7 H2          0.8250    1.4289    0.0000 HC        1 <0>         0.0000
      8 H3          0.8250    1.4289    0.0000 HC        1 <0>         0.0000
      9 H4          1.2375    0.7145    0.0000 HC        1 <0>         0.0000
     10 H5          1.2375    0.7145    0.0000 HC        1 <0>         0.0000
     11 H6          0.8250    0.0000    0.0000 H1        1 <0>         0.0000
     12 H7          1.2375   -0.7145    0.0000 HC        1 <0>         0.0000
     13 H8          1.2375   -0.7145    0.0000 HC        1 <0>         0.0000
     14 H9          1.2375   -0.7145    0.0000 HC        1 <0>         0.0000
     15 H10         0.0000    0.0000    0.0000 HO        1 <0>         0.0000
@<TRIPOS>BOND
     1    1    2 1
     2    2    3 1
     3    3    4 1
     4    3    5 1
     5    1    6 1
     6    1    7 1
     7    1    8 1
     8    2    9 1
     9    2   10 1
    10    3   11 1
    11    4   12 1
    12    4   13 1
    13    4   14 1
    14    5   15 1
@<TRIPOS>MOLECULE
*****
   12    11     0     0     0
SMALL
NO_CHARGES

@<TRIPOS>ATOM
      1 O1         -0.1914    0.7145    0.0000 OH        1 <0>         0.0000
      2 C1          0.5230    1.1270    0.0000 C         1 <0>         0.0000
      3 O2          0.5230    1.9520    0.0000 O         1 <0>         0.0000
      4 C2          1.2375    0.7145    0.0000 C         1 <0>         0.0000
      5 O3          1.2375   -0.1105    0.0000 O         1 <0>         0.0000
      6 C3          1.9520    1.1270    0.0000 CT        1 <0>         0.0000
      7 C4          2.6664    0.7145    0.0000 C         1 <0>         0.0000
      8 O4          3.3809    1.1270    0.0000 O2        1 <0>         0.0000
      9 O5          2.6664   -0.1105    0.0000 O2        1 <0>         0.0000
     10 H1         -0.1914    0.7145    0.0000 HO        1 <0>         0.0000
     11 H2          1.9520    1.1270    0.0000 HC        1 <0>         0.0000
     12 H3          1.9520    1.1270    0.0000 HC        1 <0>         0.0000
@<TRIPOS>BOND
     1    1    2 1
     2    2    3 2
     3    2    4 1
     4    4    5 2
     5    4    6 1
     6    6    7 1
     7    7    8 1
     8    7    9 2
     9    1   10 1
    10    6   11 1
    11    6   12 1
@<TRIPOS>MOLECULE
*****
   42    44     0     0     0
SMALL
NO_CHARGES

@<TRIPOS>ATOM
      1 C1          1.4289   -2.4750    0.0000 CT        1 <0>         0.0000
      2 C2          1.4289   -1.6500    0.0000 CA        1 <0>         0.0000
      3 C3          0.7145   -1.2375    0.0000 CA        1 <0>         0.0000
      4 C4          0.7145   -0.4125    0.0000 C         1 <0>         0.0000
      5 O1          0.0000    0.0000    0.0000 O         1 <0>         0.0000
      6 O2          1.4289    0.0000    0.0000 OS        1 <0>         0.0000
      7 C5          2.1434   -0.4125    0.0000 CB        1 <0>         0.0000
      8 C6          2.8579    0.0000    0.0000 CA        1 <0>         0.0000
      9 C7          3.5724   -0.4125    0.0000 CA        1 <0>         0.0000
     10 O3          4.2868    0.0000    0.0000 OS        1 <0>         0.0000
     11 C8          5.0013   -0.4125    0.0000 CT        1 <0>         0.0000
     12 O4          5.7158    0.0000    0.0000 OS        1 <0>         0.0000
     13 C9          6.4302   -0.4125    0.0000 CT        1 <0>         0.0000
     14 C10         7.1447    0.0000    0.0000 CT        1 <0>         0.0000
     15 O5          7.1447    0.8250    0.0000 OH        1 <0>         0.0000
     16 C11         6.4302   -1.2375    0.0000 CT        1 <0>         0.0000
     17 O6          7.1447   -1.6500    0.0000 OH        1 <0>         0.0000
     18 C12         5.7158   -1.6500    0.0000 CT        1 <0>         0.0000
     19 O7          5.7158   -2.4750    0.0000 OH        1 <0>         0.0000
     20 C13         5.0013   -1.2375    0.0000 CT        1 <0>         0.0000
     21 O8          4.2868   -1.6500    0.0000 OH        1 <0>         0.0000
     22 C14         3.5724   -1.2375    0.0000 CA        1 <0>         0.0000
     23 C15         2.8579   -1.6500    0.0000 CA        1 <0>         0.0000
     24 C16         2.1434   -1.2375    0.0000 CB        1 <0>         0.0000
     25 H1          1.4289   -2.4750    0.0000 HC        1 <0>         0.0000
     26 H2          1.4289   -2.4750    0.0000 HC        1 <0>         0.0000
     27 H3          1.4289   -2.4750    0.0000 HC        1 <0>         0.0000
     28 H4          0.7145   -1.2375    0.0000 HA        1 <0>         0.0000
     29 H5          2.8579    0.0000    0.0000 HA        1 <0>         0.0000
     30 H6          5.0013   -0.4125    0.0000 H2        1 <0>         0.0000
     31 H7          6.4302   -0.4125    0.0000 H1        1 <0>         0.0000
     32 H8          7.1447    0.0000    0.0000 H1        1 <0>         0.0000
     33 H9          7.1447    0.0000    0.0000 H1        1 <0>         0.0000
     34 H10         7.1447    0.8250    0.0000 HO        1 <0>         0.0000
     35 H11         6.4302   -1.2375    0.0000 H1        1 <0>         0.0000
     36 H12         7.1447   -1.6500    0.0000 HO        1 <0>         0.0000
     37 H13         5.7158   -1.6500    0.0000 H1        1 <0>         0.0000
     38 H14         5.7158   -2.4750    0.0000 HO        1 <0>         0.0000
     39 H15         5.0013   -1.2375    0.0000 H1        1 <0>         0.0000
     40 H16         4.2868   -1.6500    0.0000 HO        1 <0>         0.0000
     41 H17         3.5724   -1.2375    0.0000 HA        1 <0>         0.0000
     42 H18         2.8579   -1.6500    0.0000 HA        1 <0>         0.0000
@<TRIPOS>BOND
     1    1    2 1
     2    2    3 2
     3    3    4 1
     4    4    5 2
     5    4    6 1
     6    6    7 1
     7    7    8 ar
     8    8    9 ar
     9    9   10 1
    10   10   11 1
    11   11   12 1
    12   12   13 1
    13   13   14 1
    14   14   15 1
    15   13   16 1
    16   16   17 1
    17   16   18 1
    18   18   19 1
    19   18   20 1
    20   11   20 1
    21   20   21 1
    22    9   22 ar
    23   22   23 ar
    24   23   24 ar
    25    2   24 1
    26    7   24 ar
    27    1   25 1
    28    1   26 1
    29    1   27 1
    30    3   28 1
    31    8   29 1
    32   11   30 1
    33   13   31 1
    34   14   32 1
    35   14   33 1
    36   15   34 1
    37   16   35 1
    38   17   36 1
    39   18   37 1
    40   19   38 1
    41   20   39 1
    42   21   40 1
    43   22   41 1
    44   23   42 1
@<TRIPOS>MOLECULE
*****
   69    70     0     0     0
SMALL
NO_CHARGES

@<TRIPOS>ATOM
      1 C1          1.6725    1.3214    0.0000 CT        1 <0>         0.0000
      2 O1          2.3045    1.8517    0.0000 OS        1 <0>         0.0000
      3 C2          3.0797    1.5695    0.0000 CT        1 <0>         0.0000
      4 C3          3.7117    2.0998    0.0000 CT        1 <0>         0.0000
      5 C4          4.4870    1.8176    0.0000 CT        1 <0>         0.0000
      6 C5          4.6302    1.0052    0.0000 CT        1 <0>         0.0000
      7 C6          3.9982    0.4749    0.0000 CT        1 <0>         0.0000
      8 C7          4.6302   -0.0554    0.0000 CT        1 <0>         0.0000
      9 O2          3.5857   -0.2396    0.0000 OH        1 <0>         0.0000
     10 C8          3.2230    0.7570    0.0000 CT        1 <0>         0.0000
     11 C9          2.5910    0.2267    0.0000 CJ        1 <0>         0.0000
     12 C10         1.9590    0.7570    0.0000 CT        1 <0>         0.0000
     13 O3          3.0035   -0.4877    0.0000 OS        1 <0>         0.0000
     14 C11         2.1785   -0.4877    0.0000 CJ        1 <0>         0.0000
     15 C12         1.4640   -0.9002    0.0000 CT        1 <0>         0.0000
     16 C13         1.4640   -1.7252    0.0000 CM        1 <0>         0.0000
     17 C14         0.7496   -2.1377    0.0000 CM        1 <0>         0.0000
     18 C15         0.7496   -2.9627    0.0000 CT        1 <0>         0.0000
     19 C16         0.0351   -1.7252    0.0000 CT        1 <0>         0.0000
     20 O4          3.5685    2.9123    0.0000 OS        1 <0>         0.0000
     21 C17         4.2004    3.4426    0.0000 C         1 <0>         0.0000
     22 O5          4.9757    3.1604    0.0000 O         1 <0>         0.0000
     23 C18         4.0572    4.2550    0.0000 CM        1 <0>         0.0000
     24 C19         4.6892    4.7853    0.0000 CM        1 <0>         0.0000
     25 C20         4.5459    5.5978    0.0000 CM        1 <0>         0.0000
     26 C21         5.1779    6.1281    0.0000 CM        1 <0>         0.0000
     27 C22         5.0346    6.9406    0.0000 CM        1 <0>         0.0000
     28 C23         5.6666    7.4709    0.0000 CM        1 <0>         0.0000
     29 C24         5.5234    8.2833    0.0000 CM        1 <0>         0.0000
     30 C25         6.1553    8.8136    0.0000 CM        1 <0>         0.0000
     31 C26         6.0121    9.6261    0.0000 C         1 <0>         0.0000
     32 O6          5.2368    9.9083    0.0000 OH        1 <0>         0.0000
     33 O7          6.6441   10.1564    0.0000 O         1 <0>         0.0000
     34 H1          1.6725    1.3214    0.0000 H1        1 <0>         0.0000
     35 H2          1.6725    1.3214    0.0000 H1        1 <0>         0.0000
     36 H3          1.6725    1.3214    0.0000 H1        1 <0>         0.0000
     37 H4          3.0797    1.5695    0.0000 H1        1 <0>         0.0000
     38 H5          3.7117    2.0998    0.0000 H1        1 <0>         0.0000
     39 H6          4.4870    1.8176    0.0000 HC        1 <0>         0.0000
     40 H7          4.4870    1.8176    0.0000 HC        1 <0>         0.0000
     41 H8          4.6302    1.0052    0.0000 HC        1 <0>         0.0000
     42 H9          4.6302    1.0052    0.0000 HC        1 <0>         0.0000
     43 H10         4.6302   -0.0554    0.0000 HC        1 <0>         0.0000
     44 H11         4.6302   -0.0554    0.0000 HC        1 <0>         0.0000
     45 H12         4.6302   -0.0554    0.0000 HC        1 <0>         0.0000
     46 H13         3.5857   -0.2396    0.0000 HO        1 <0>         0.0000
     47 H14         3.2230    0.7570    0.0000 HC        1 <0>         0.0000
     48 H15         1.9590    0.7570    0.0000 HC        1 <0>         0.0000
     49 H16         1.9590    0.7570    0.0000 HC        1 <0>         0.0000
     50 H17         1.9590    0.7570    0.0000 HC        1 <0>         0.0000
     51 H18         2.1785   -0.4877    0.0000 H1        1 <0>         0.0000
     52 H19         1.4640   -0.9002    0.0000 HC        1 <0>         0.0000
     53 H20         1.4640   -0.9002    0.0000 HC        1 <0>         0.0000
     54 H21         1.4640   -1.7252    0.0000 HA        1 <0>         0.0000
     55 H22         0.7496   -2.9627    0.0000 HC        1 <0>         0.0000
     56 H23         0.7496   -2.9627    0.0000 HC        1 <0>         0.0000
     57 H24         0.7496   -2.9627    0.0000 HC        1 <0>         0.0000
     58 H25         0.0351   -1.7252    0.0000 HC        1 <0>         0.0000
     59 H26         0.0351   -1.7252    0.0000 HC        1 <0>         0.0000
     60 H27         0.0351   -1.7252    0.0000 HC        1 <0>         0.0000
     61 H28         4.0572    4.2550    0.0000 HA        1 <0>         0.0000
     62 H29         4.6892    4.7853    0.0000 HA        1 <0>         0.0000
     63 H30         4.5459    5.5978    0.0000 HA        1 <0>         0.0000
     64 H31         5.1779    6.1281    0.0000 HA        1 <0>         0.0000
     65 H32         5.0346    6.9406    0.0000 HA        1 <0>         0.0000
     66 H33         5.6666    7.4709    0.0000 HA        1 <0>         0.0000
     67 H34         5.5234    8.2833    0.0000 HA        1 <0>         0.0000
     68 H35         6.1553    8.8136    0.0000 HA        1 <0>         0.0000
     69 H36         5.2368    9.9083    0.0000 HO        1 <0>         0.0000
@<TRIPOS>BOND
     1    1    2 1
     2    2    3 1
     3    3    4 1
     4    4    5 1
     5    5    6 1
     6    6    7 1
     7    7    8 1
     8    7    9 1
     9    7   10 1
    10    3   10 1
    11   10   11 1
    12   11   12 1
    13   11   13 1
    14   13   14 1
    15   11   14 1
    16   14   15 1
    17   15   16 1
    18   16   17 2
    19   17   18 1
    20   17   19 1
    21    4   20 1
    22   20   21 1
    23   21   22 2
    24   21   23 1
    25   23   24 2
    26   24   25 1
    27   25   26 2
    28   26   27 1
    29   27   28 2
    30   28   29 1
    31   29   30 2
    32   30   31 1
    33   31   32 1
    34   31   33 2
    35    1   34 1
    36    1   35 1
    37    1   36 1
    38    3   37 1
    39    4   38 1
    40    5   39 1
    41    5   40 1
    42    6   41 1
    43    6   42 1
    44    8   43 1
    45    8   44 1
    46    8   45 1
    47    9   46 1
    48   10   47 1
    49   12   48 1
    50   12   49 1
    51   12   50 1
    52   14   51 1
    53   15   52 1
    54   15   53 1
    55   16   54 1
    56   18   55 1
    57   18   56 1
    58   18   57 1
    59   19   58 1
    60   19   59 1
    61   19   60 1
    62   23   61 1
    63   24   62 1
    64   25   63 1
    65   26   64 1
    66   27   65 1
    67   28   66 1
    68   29   67 1
    69   30   68 1
    70   32   69 1
@<TRIPOS>MOLECULE
*****
   35    36     0     0     0
SMALL
NO_CHARGES

@<TRIPOS>ATOM
      1 O1         -4.2868    9.2026    0.0000 OH        1 <0>         0.0000
      2 C1         -3.5724    8.7901    0.0000 CT        1 <0>         0.0000
      3 C2         -3.5724    7.9651    0.0000 CT        1 <0>         0.0000
      4 O2         -2.8579    7.5526    0.0000 OS        1 <0>         0.0000
      5 C3         -2.8579    6.7276    0.0000 CT        1 <0>         0.0000
      6 O3         -2.1434    6.3151    0.0000 OS        1 <0>         0.0000
      7 C4         -2.1434    5.4901    0.0000 CT        1 <0>         0.0000
      8 C5         -1.4289    5.0776    0.0000 CT        1 <0>         0.0000
      9 C6         -1.4289    4.2526    0.0000 CJ        1 <0>         0.0000
     10 C7         -1.0164    3.5382    0.0000 CJ        1 <0>         0.0000
     11 O4         -1.8414    3.5382    0.0000 OS        1 <0>         0.0000
     12 C8         -3.5724    6.3151    0.0000 CT        1 <0>         0.0000
     13 O5         -3.5724    5.4901    0.0000 OH        1 <0>         0.0000
     14 C9         -4.2868    6.7276    0.0000 CT        1 <0>         0.0000
     15 O6         -5.0013    6.3151    0.0000 OH        1 <0>         0.0000
     16 C10        -4.2868    7.5526    0.0000 CT        1 <0>         0.0000
     17 O7         -5.0013    7.9651    0.0000 OH        1 <0>         0.0000
     18 H1         -4.2868    9.2026    0.0000 HO        1 <0>         0.0000
     19 H2         -3.5724    8.7901    0.0000 H1        1 <0>         0.0000
     20 H3         -3.5724    8.7901    0.0000 H1        1 <0>         0.0000
     21 H4         -3.5724    7.9651    0.0000 H1        1 <0>         0.0000
     22 H5         -2.8579    6.7276    0.0000 H2        1 <0>         0.0000
     23 H6         -2.1434    5.4901    0.0000 H1        1 <0>         0.0000
     24 H7         -2.1434    5.4901    0.0000 H1        1 <0>         0.0000
     25 H8         -1.4289    5.0776    0.0000 HC        1 <0>         0.0000
     26 H9         -1.4289    5.0776    0.0000 HC        1 <0>         0.0000
     27 H10        -1.4289    4.2526    0.0000 H1        1 <0>         0.0000
     28 H11        -1.0164    3.5382    0.0000 H1        1 <0>         0.0000
     29 H12        -1.0164    3.5382    0.0000 H1        1 <0>         0.0000
     30 H13        -3.5724    6.3151    0.0000 H1        1 <0>         0.0000
     31 H14        -3.5724    5.4901    0.0000 HO        1 <0>         0.0000
     32 H15        -4.2868    6.7276    0.0000 H1        1 <0>         0.0000
     33 H16        -5.0013    6.3151    0.0000 HO        1 <0>         0.0000
     34 H17        -4.2868    7.5526    0.0000 H1        1 <0>         0.0000
     35 H18        -5.0013    7.9651    0.0000 HO        1 <0>         0.0000
@<TRIPOS>BOND
     1    1    2 1
     2    2    3 1
     3    3    4 1
     4    4    5 1
     5    5    6 1
     6    6    7 1
     7    7    8 1
     8    8    9 1
     9    9   10 1
    10   10   11 1
    11    9   11 1
    12    5   12 1
    13   12   13 1
    14   12   14 1
    15   14   15 1
    16   14   16 1
    17    3   16 1
    18   16   17 1
    19    1   18 1
    20    2   19 1
    21    2   20 1
    22    3   21 1
    23    5   22 1
    24    7   23 1
    25    7   24 1
    26    8   25 1
    27    8   26 1
    28    9   27 1
    29   10   28 1
    30   10   29 1
    31   12   30 1
    32   13   31 1
    33   14   32 1
    34   15   33 1
    35   16   34 1
    36   17   35 1
@<TRIPOS>MOLECULE
CHD
   69    72     0     0     0
SMALL
NO_CHARGES

@<TRIPOS>ATOM
      1 C1          2.3153   -0.2050    0.0000 CT        1 <0>         0.0000
      2 C2          3.1274   -0.0597    0.0000 CT        1 <0>         0.0000
      3 C3          3.4077    0.7162    0.0000 CT        1 <0>         0.0000
      4 O1          4.2198    0.8614    0.0000 OH        1 <0>         0.0000
      5 C4          2.8759    1.3469    0.0000 CT        1 <0>         0.0000
      6 C5          2.0637    1.2017    0.0000 CT        1 <0>         0.0000
      7 C6          1.5319    1.8324    0.0000 CT        1 <0>         0.0000
      8 C7          0.7198    1.6872    0.0000 CT        1 <0>         0.0000
      9 O2          0.1880    2.3179    0.0000 OH        1 <0>         0.0000
     10 C8          0.4395    0.9112    0.0000 CT        1 <0>         0.0000
     11 C9          0.9713    0.2805    0.0000 CT        1 <0>         0.0000
     12 C10         1.7834    0.4257    0.0000 CT        1 <0>         0.0000
     13 C11         0.6910   -0.4954    0.0000 CT        1 <0>         0.0000
     14 C12        -0.1211   -0.6406    0.0000 CT        1 <0>         0.0000
     15 O3         -0.4014   -1.4165    0.0000 OH        1 <0>         0.0000
     16 C13        -0.6529   -0.0099    0.0000 CT        1 <0>         0.0000
     17 C14        -0.3726    0.7660    0.0000 CT        1 <0>         0.0000
     18 C15        -1.0239    1.2724    0.0000 CT        1 <0>         0.0000
     19 C16        -1.7068    0.8094    0.0000 CT        1 <0>         0.0000
     20 C17        -1.4775    0.0169    0.0000 CT        1 <0>         0.0000
     21 C18        -1.0128   -0.7523    0.0000 CT        1 <0>         0.0000
     22 C19         1.5031   -0.3502    0.0000 CT        1 <0>         0.0000
     23 C20        -1.9838   -0.6344    0.0000 CT        1 <0>         0.0000
     24 C21        -1.6729   -1.3986    0.0000 CT        1 <0>         0.0000
     25 C22        -2.8011   -0.5216    0.0000 CT        1 <0>         0.0000
     26 C23        -3.3074   -1.1729    0.0000 CT        1 <0>         0.0000
     27 O4         -4.6310   -1.7114    0.0000 O         1 <0>         0.0000
     28 C24        -4.1247   -1.0601    0.0000 C         1 <0>         0.0000
     29 O5         -4.4356   -0.2959    0.0000 OH        1 <0>         0.0000
     30 H1          3.7841    0.2698    0.0000 H1        1 <0>         0.0000
     31 H2          2.2621    1.7509    0.0000 HC        1 <0>         0.0000
     32 H3          0.9182    2.2364    0.0000 H1        1 <0>         0.0000
     33 H4          0.0631    1.3576    0.0000 HC        1 <0>         0.0000
     34 H5          1.1724   -0.2677    0.0000 HC        1 <0>         0.0000
     35 H6          0.2553   -1.0870    0.0000 H1        1 <0>         0.0000
     36 H7         -0.2327    1.3329    0.0000 HC        1 <0>         0.0000
     37 H8         -1.0636   -0.3950    0.0000 HC        1 <0>         0.0000
     38 H9         -1.4054   -0.7143    0.0000 HC        1 <0>         0.0000
     39 H10         2.3153   -0.2050    0.0000 HC        1 <0>         0.0000
     40 H11         2.3153   -0.2050    0.0000 HC        1 <0>         0.0000
     41 H12         3.1274   -0.0597    0.0000 HC        1 <0>         0.0000
     42 H13         3.1274   -0.0597    0.0000 HC        1 <0>         0.0000
     43 H14         4.2198    0.8614    0.0000 HO        1 <0>         0.0000
     44 H15         2.8759    1.3469    0.0000 HC        1 <0>         0.0000
     45 H16         2.8759    1.3469    0.0000 HC        1 <0>         0.0000
     46 H17         1.5319    1.8324    0.0000 HC        1 <0>         0.0000
     47 H18         1.5319    1.8324    0.0000 HC        1 <0>         0.0000
     48 H19         0.1880    2.3179    0.0000 HO        1 <0>         0.0000
     49 H20         0.6910   -0.4954    0.0000 HC        1 <0>         0.0000
     50 H21         0.6910   -0.4954    0.0000 HC        1 <0>         0.0000
     51 H22        -0.4014   -1.4165    0.0000 HO        1 <0>         0.0000
     52 H23        -1.0239    1.2724    0.0000 HC        1 <0>         0.0000
     53 H24        -1.0239    1.2724    0.0000 HC        1 <0>         0.0000
     54 H25        -1.7068    0.8094    0.0000 HC        1 <0>         0.0000
     55 H26        -1.7068    0.8094    0.0000 HC        1 <0>         0.0000
     56 H27        -1.0128   -0.7523    0.0000 HC        1 <0>         0.0000
     57 H28        -1.0128   -0.7523    0.0000 HC        1 <0>         0.0000
     58 H29        -1.0128   -0.7523    0.0000 HC        1 <0>         0.0000
     59 H30         1.5031   -0.3502    0.0000 HC        1 <0>         0.0000
     60 H31         1.5031   -0.3502    0.0000 HC        1 <0>         0.0000
     61 H32         1.5031   -0.3502    0.0000 HC        1 <0>         0.0000
     62 H33        -1.6729   -1.3986    0.0000 HC        1 <0>         0.0000
     63 H34        -1.6729   -1.3986    0.0000 HC        1 <0>         0.0000
     64 H35        -1.6729   -1.3986    0.0000 HC        1 <0>         0.0000
     65 H36        -2.8011   -0.5216    0.0000 HC        1 <0>         0.0000
     66 H37        -2.8011   -0.5216    0.0000 HC        1 <0>         0.0000
     67 H38        -3.3074   -1.1729    0.0000 HC        1 <0>         0.0000
     68 H39        -3.3074   -1.1729    0.0000 HC        1 <0>         0.0000
     69 H40        -4.4356   -0.2959    0.0000 HO        1 <0>         0.0000
@<TRIPOS>BOND
     1    1    2 1
     2    1   12 1
     3    2    3 1
     4    3    4 1
     5    3    5 1
     6    3   30 1
     7    5    6 1
     8    6    7 1
     9    6   12 1
    10    6   31 1
    11    7    8 1
    12    8    9 1
    13    8   10 1
    14    8   32 1
    15   10   11 1
    16   10   17 1
    17   10   33 1
    18   11   12 1
    19   11   13 1
    20   11   34 1
    21   12   22 1
    22   13   14 1
    23   14   15 1
    24   14   16 1
    25   14   35 1
    26   16   17 1
    27   16   20 1
    28   16   21 1
    29   17   18 1
    30   17   36 1
    31   18   19 1
    32   19   20 1
    33   20   23 1
    34   20   37 1
    35   23   24 1
    36   23   25 1
    37   23   38 1
    38   25   26 1
    39   26   28 1
    40   27   28 2
    41   28   29 1
    42    1   39 1
    43    1   40 1
    44    2   41 1
    45    2   42 1
    46    4   43 1
    47    5   44 1
    48    5   45 1
    49    7   46 1
    50    7   47 1
    51    9   48 1
    52   13   49 1
    53   13   50 1
    54   15   51 1
    55   18   52 1
    56   18   53 1
    57   19   54 1
    58   19   55 1
    59   21   56 1
    60   21   57 1
    61   21   58 1
    62   22   59 1
    63   22   60 1
    64   22   61 1
    65   24   62 1
    66   24   63 1
    67   24   64 1
    68   25   65 1
    69   25   66 1
    70   26   67 1
    71   26   68 1
    72   29   69 1
@<TRIPOS>MOLECULE
*****
   23    23     0     0     0
SMALL
NO_CHARGES

@<TRIPOS>ATOM
      1 O1          2.8579    0.0000    0.0000 OH        1 <0>         0.0000
      2 C1          2.1434   -0.4125    0.0000 CT        1 <0>         0.0000
      3 C2          1.4289    0.0000    0.0000 CT        1 <0>         0.0000
      4 C3          0.7145   -0.4125    0.0000 CT        1 <0>         0.0000
      5 C4          0.0000    0.0000    0.0000 CT        1 <0>         0.0000
      6 O2         -0.7145   -0.4125    0.0000 OH        1 <0>         0.0000
      7 C5          0.0000    0.8250    0.0000 CT        1 <0>         0.0000
      8 O3         -0.7145    1.2375    0.0000 OH        1 <0>         0.0000
      9 C6          0.7145    1.2375    0.0000 CT        1 <0>         0.0000
     10 O4          0.7145    2.0625    0.0000 OH        1 <0>         0.0000
     11 O5          1.4289    0.8250    0.0000 OS        1 <0>         0.0000
     12 H1          2.8579    0.0000    0.0000 HO        1 <0>         0.0000
     13 H2          2.1434   -0.4125    0.0000 H1        1 <0>         0.0000
     14 H3          2.1434   -0.4125    0.0000 H1        1 <0>         0.0000
     15 H4          1.4289    0.0000    0.0000 H1        1 <0>         0.0000
     16 H5          0.7145   -0.4125    0.0000 HC        1 <0>         0.0000
     17 H6          0.7145   -0.4125    0.0000 HC        1 <0>         0.0000
     18 H7          0.0000    0.0000    0.0000 H1        1 <0>         0.0000
     19 H8         -0.7145   -0.4125    0.0000 HO        1 <0>         0.0000
     20 H9          0.0000    0.8250    0.0000 H1        1 <0>         0.0000
     21 H10        -0.7145    1.2375    0.0000 HO        1 <0>         0.0000
     22 H11         0.7145    1.2375    0.0000 H2        1 <0>         0.0000
     23 H12         0.7145    2.0625    0.0000 HO        1 <0>         0.0000
@<TRIPOS>BOND
     1    1    2 1
     2    2    3 1
     3    3    4 1
     4    4    5 1
     5    5    6 1
     6    5    7 1
     7    7    8 1
     8    7    9 1
     9    9   10 1
    10    9   11 1
    11    3   11 1
    12    1   12 1
    13    2   13 1
    14    2   14 1
    15    3   15 1
    16    4   16 1
    17    4   17 1
    18    5   18 1
    19    6   19 1
    20    7   20 1
    21    8   21 1
    22    9   22 1
    23   10   23 1
@<TRIPOS>MOLECULE
*****
   78    79     0     0     0
SMALL
NO_CHARGES

@<TRIPOS>ATOM
      1 C1        -10.0026   -2.4750    0.0000 CT        1 <0>         0.0000
      2 C2         -9.2881   -2.8875    0.0000 CT        1 <0>         0.0000
      3 C3         -8.5737   -2.4750    0.0000 CT        1 <0>         0.0000
      4 C4         -7.8592   -2.8875    0.0000 CT        1 <0>         0.0000
      5 C5         -7.1447   -2.4750    0.0000 CT        1 <0>         0.0000
      6 C6         -6.4302   -2.8875    0.0000 CT        1 <0>         0.0000
      7 C7         -5.7158   -2.4750    0.0000 CT        1 <0>         0.0000
      8 C8         -5.0013   -2.8875    0.0000 CT        1 <0>         0.0000
      9 C9         -4.2868   -2.4750    0.0000 CT        1 <0>         0.0000
     10 C10        -3.5724   -2.8875    0.0000 CT        1 <0>         0.0000
     11 C11        -2.8579   -2.4750    0.0000 CT        1 <0>         0.0000
     12 O1         -2.1434   -2.8875    0.0000 OS        1 <0>         0.0000
     13 C12        -1.4289   -2.4750    0.0000 CT        1 <0>         0.0000
     14 O2         -0.7145   -2.8875    0.0000 OS        1 <0>         0.0000
     15 C13         0.0000   -2.4750    0.0000 CT        1 <0>         0.0000
     16 C14         0.7145   -2.8875    0.0000 CT        1 <0>         0.0000
     17 O3          1.4289   -2.4750    0.0000 OH        1 <0>         0.0000
     18 C15         0.0000   -1.6500    0.0000 CT        1 <0>         0.0000
     19 O4          0.7145   -1.2375    0.0000 OS        1 <0>         0.0000
     20 C16         0.7145   -0.4125    0.0000 CT        1 <0>         0.0000
     21 O5          0.0000    0.0000    0.0000 OS        1 <0>         0.0000
     22 C17         0.0000    0.8250    0.0000 CT        1 <0>         0.0000
     23 C18        -0.7145    1.2375    0.0000 CT        1 <0>         0.0000
     24 O6         -1.4289    0.8250    0.0000 OH        1 <0>         0.0000
     25 C19         0.7145    1.2375    0.0000 CT        1 <0>         0.0000
     26 O7          0.7145    2.0625    0.0000 OH        1 <0>         0.0000
     27 C20         1.4289    0.8250    0.0000 CT        1 <0>         0.0000
     28 O8          2.1434    1.2375    0.0000 OH        1 <0>         0.0000
     29 C21         1.4289    0.0000    0.0000 CT        1 <0>         0.0000
     30 O9          2.1434   -0.4125    0.0000 OH        1 <0>         0.0000
     31 C22        -0.7145   -1.2375    0.0000 CT        1 <0>         0.0000
     32 O10        -0.7145   -0.4125    0.0000 OH        1 <0>         0.0000
     33 C23        -1.4289   -1.6500    0.0000 CT        1 <0>         0.0000
     34 O11        -2.1434   -1.2375    0.0000 OH        1 <0>         0.0000
     35 H1        -10.0026   -2.4750    0.0000 HC        1 <0>         0.0000
     36 H2        -10.0026   -2.4750    0.0000 HC        1 <0>         0.0000
     37 H3        -10.0026   -2.4750    0.0000 HC        1 <0>         0.0000
     38 H4         -9.2881   -2.8875    0.0000 HC        1 <0>         0.0000
     39 H5         -9.2881   -2.8875    0.0000 HC        1 <0>         0.0000
     40 H6         -8.5737   -2.4750    0.0000 HC        1 <0>         0.0000
     41 H7         -8.5737   -2.4750    0.0000 HC        1 <0>         0.0000
     42 H8         -7.8592   -2.8875    0.0000 HC        1 <0>         0.0000
     43 H9         -7.8592   -2.8875    0.0000 HC        1 <0>         0.0000
     44 H10        -7.1447   -2.4750    0.0000 HC        1 <0>         0.0000
     45 H11        -7.1447   -2.4750    0.0000 HC        1 <0>         0.0000
     46 H12        -6.4302   -2.8875    0.0000 HC        1 <0>         0.0000
     47 H13        -6.4302   -2.8875    0.0000 HC        1 <0>         0.0000
     48 H14        -5.7158   -2.4750    0.0000 HC        1 <0>         0.0000
     49 H15        -5.7158   -2.4750    0.0000 HC        1 <0>         0.0000
     50 H16        -5.0013   -2.8875    0.0000 HC        1 <0>         0.0000
     51 H17        -5.0013   -2.8875    0.0000 HC        1 <0>         0.0000
     52 H18        -4.2868   -2.4750    0.0000 HC        1 <0>         0.0000
     53 H19        -4.2868   -2.4750    0.0000 HC        1 <0>         0.0000
     54 H20        -3.5724   -2.8875    0.0000 HC        1 <0>         0.0000
     55 H21        -3.5724   -2.8875    0.0000 HC        1 <0>         0.0000
     56 H22        -2.8579   -2.4750    0.0000 H1        1 <0>         0.0000
     57 H23        -2.8579   -2.4750    0.0000 H1        1 <0>         0.0000
     58 H24        -1.4289   -2.4750    0.0000 H2        1 <0>         0.0000
     59 H25         0.0000   -2.4750    0.0000 H1        1 <0>         0.0000
     60 H26         0.7145   -2.8875    0.0000 H1        1 <0>         0.0000
     61 H27         0.7145   -2.8875    0.0000 H1        1 <0>         0.0000
     62 H28         1.4289   -2.4750    0.0000 HO        1 <0>         0.0000
     63 H29         0.0000   -1.6500    0.0000 H1        1 <0>         0.0000
     64 H30         0.7145   -0.4125    0.0000 H2        1 <0>         0.0000
     65 H31         0.0000    0.8250    0.0000 H1        1 <0>         0.0000
     66 H32        -0.7145    1.2375    0.0000 H1        1 <0>         0.0000
     67 H33        -0.7145    1.2375    0.0000 H1        1 <0>         0.0000
     68 H34        -1.4289    0.8250    0.0000 HO        1 <0>         0.0000
     69 H35         0.7145    1.2375    0.0000 H1        1 <0>         0.0000
     70 H36         0.7145    2.0625    0.0000 HO        1 <0>         0.0000
     71 H37         1.4289    0.8250    0.0000 H1        1 <0>         0.0000
     72 H38         2.1434    1.2375    0.0000 HO        1 <0>         0.0000
     73 H39         1.4289    0.0000    0.0000 H1        1 <0>         0.0000
     74 H40         2.1434   -0.4125    0.0000 HO        1 <0>         0.0000
     75 H41        -0.7145   -1.2375    0.0000 H1        1 <0>         0.0000
     76 H42        -0.7145   -0.4125    0.0000 HO        1 <0>         0.0000
     77 H43        -1.4289   -1.6500    0.0000 H1        1 <0>         0.0000
     78 H44        -2.1434   -1.2375    0.0000 HO        1 <0>         0.0000
@<TRIPOS>BOND
     1    1    2 1
     2    2    3 1
     3    3    4 1
     4    4    5 1
     5    5    6 1
     6    6    7 1
     7    7    8 1
     8    8    9 1
     9    9   10 1
    10   10   11 1
    11   11   12 1
    12   12   13 1
    13   13   14 1
    14   14   15 1
    15   15   16 1
    16   16   17 1
    17   15   18 1
    18   18   19 1
    19   19   20 1
    20   20   21 1
    21   21   22 1
    22   22   23 1
    23   23   24 1
    24   22   25 1
    25   25   26 1
    26   25   27 1
    27   27   28 1
    28   27   29 1
    29   20   29 1
    30   29   30 1
    31   18   31 1
    32   31   32 1
    33   31   33 1
    34   13   33 1
    35   33   34 1
    36    1   35 1
    37    1   36 1
    38    1   37 1
    39    2   38 1
    40    2   39 1
    41    3   40 1
    42    3   41 1
    43    4   42 1
    44    4   43 1
    45    5   44 1
    46    5   45 1
    47    6   46 1
    48    6   47 1
    49    7   48 1
    50    7   49 1
    51    8   50 1
    52    8   51 1
    53    9   52 1
    54    9   53 1
    55   10   54 1
    56   10   55 1
    57   11   56 1
    58   11   57 1
    59   13   58 1
    60   15   59 1
    61   16   60 1
    62   16   61 1
    63   17   62 1
    64   18   63 1
    65   20   64 1
    66   22   65 1
    67   23   66 1
    68   23   67 1
    69   24   68 1
    70   25   69 1
    71   26   70 1
    72   27   71 1
    73   28   72 1
    74   29   73 1
    75   30   74 1
    76   31   75 1
    77   32   76 1
    78   33   77 1
    79   34   78 1
@<TRIPOS>MOLECULE
*****
   39    39     0     0     0
SMALL
NO_CHARGES

@<TRIPOS>ATOM
      1 C1         -2.8579   -3.3000    0.0000 CT        1 <0>         0.0000
      2 C2         -2.1434   -2.8875    0.0000 CT        1 <0>         0.0000
      3 C3         -1.4289   -3.3000    0.0000 CT        1 <0>         0.0000
      4 C4         -0.7145   -2.8875    0.0000 CT        1 <0>         0.0000
      5 C5          0.0000   -3.3000    0.0000 CT        1 <0>         0.0000
      6 O1          0.7145   -2.8875    0.0000 OS        1 <0>         0.0000
      7 C6          1.4289   -3.3000    0.0000 CT        1 <0>         0.0000
      8 O2          2.1434   -2.8875    0.0000 OS        1 <0>         0.0000
      9 C7          2.8579   -3.3000    0.0000 CT        1 <0>         0.0000
     10 C8          3.5724   -2.8875    0.0000 CT        1 <0>         0.0000
     11 O3          3.5724   -2.0625    0.0000 OH        1 <0>         0.0000
     12 C9          2.8579   -4.1250    0.0000 CT        1 <0>         0.0000
     13 O4          3.5724   -4.5375    0.0000 OH        1 <0>         0.0000
     14 C10         2.1434   -4.5375    0.0000 CT        1 <0>         0.0000
     15 O5          2.1434   -5.3625    0.0000 OH        1 <0>         0.0000
     16 C11         1.4289   -4.1250    0.0000 CT        1 <0>         0.0000
     17 O6          0.7145   -4.5375    0.0000 OH        1 <0>         0.0000
     18 H1         -2.8579   -3.3000    0.0000 HC        1 <0>         0.0000
     19 H2         -2.8579   -3.3000    0.0000 HC        1 <0>         0.0000
     20 H3         -2.8579   -3.3000    0.0000 HC        1 <0>         0.0000
     21 H4         -2.1434   -2.8875    0.0000 HC        1 <0>         0.0000
     22 H5         -2.1434   -2.8875    0.0000 HC        1 <0>         0.0000
     23 H6         -1.4289   -3.3000    0.0000 HC        1 <0>         0.0000
     24 H7         -1.4289   -3.3000    0.0000 HC        1 <0>         0.0000
     25 H8         -0.7145   -2.8875    0.0000 HC        1 <0>         0.0000
     26 H9         -0.7145   -2.8875    0.0000 HC        1 <0>         0.0000
     27 H10         0.0000   -3.3000    0.0000 H1        1 <0>         0.0000
     28 H11         0.0000   -3.3000    0.0000 H1        1 <0>         0.0000
     29 H12         1.4289   -3.3000    0.0000 H2        1 <0>         0.0000
     30 H13         2.8579   -3.3000    0.0000 H1        1 <0>         0.0000
     31 H14         3.5724   -2.8875    0.0000 H1        1 <0>         0.0000
     32 H15         3.5724   -2.8875    0.0000 H1        1 <0>         0.0000
     33 H16         3.5724   -2.0625    0.0000 HO        1 <0>         0.0000
     34 H17         2.8579   -4.1250    0.0000 H1        1 <0>         0.0000
     35 H18         3.5724   -4.5375    0.0000 HO        1 <0>         0.0000
     36 H19         2.1434   -4.5375    0.0000 H1        1 <0>         0.0000
     37 H20         2.1434   -5.3625    0.0000 HO        1 <0>         0.0000
     38 H21         1.4289   -4.1250    0.0000 H1        1 <0>         0.0000
     39 H22         0.7145   -4.5375    0.0000 HO        1 <0>         0.0000
@<TRIPOS>BOND
     1    1    2 1
     2    2    3 1
     3    3    4 1
     4    4    5 1
     5    5    6 1
     6    6    7 1
     7    7    8 1
     8    8    9 1
     9    9   10 1
    10   10   11 1
    11    9   12 1
    12   12   13 1
    13   12   14 1
    14   14   15 1
    15   14   16 1
    16    7   16 1
    17   16   17 1
    18    1   18 1
    19    1   19 1
    20    1   20 1
    21    2   21 1
    22    2   22 1
    23    3   23 1
    24    3   24 1
    25    4   25 1
    26    4   26 1
    27    5   27 1
    28    5   28 1
    29    7   29 1
    30    9   30 1
    31   10   31 1
    32   10   32 1
    33   11   33 1
    34   12   34 1
    35   13   35 1
    36   14   36 1
    37   15   37 1
    38   16   38 1
    39   17   39 1
@<TRIPOS>MOLECULE
*****
   50    50     0     0     0
SMALL
NO_CHARGES

@<TRIPOS>ATOM
      1 C1          5.7158    3.3000    0.0000 CT        1 <0>         0.0000
      2 C2          5.7158    2.4750    0.0000 CM        1 <0>         0.0000
      3 C3          5.0013    2.0625    0.0000 CM        1 <0>         0.0000
      4 C4          4.2868    2.4750    0.0000 CM        1 <0>         0.0000
      5 C5          3.5724    2.0625    0.0000 CM        1 <0>         0.0000
      6 C6          2.8579    2.4750    0.0000 CM        1 <0>         0.0000
      7 C7          2.8579    3.3000    0.0000 CT        1 <0>         0.0000
      8 C8          2.1434    2.0625    0.0000 CM        1 <0>         0.0000
      9 C9          2.1434    1.2375    0.0000 CM        1 <0>         0.0000
     10 C10         1.4289    0.8250    0.0000 CM        1 <0>         0.0000
     11 C11         1.4289    0.0000    0.0000 CM        1 <0>         0.0000
     12 C12         2.1434   -0.4125    0.0000 CT        1 <0>         0.0000
     13 C13         0.7145   -0.4125    0.0000 C         1 <0>         0.0000
     14 O1          0.7145   -1.2375    0.0000 O         1 <0>         0.0000
     15 C14         0.0000    0.0000    0.0000 CT        1 <0>         0.0000
     16 C15         0.0000    0.8250    0.0000 CT        1 <0>         0.0000
     17 C16         0.7145    1.2375    0.0000 CT        1 <0>         0.0000
     18 C17         0.3272    1.9659    0.0000 CT        1 <0>         0.0000
     19 C18         1.1018    1.9659    0.0000 CT        1 <0>         0.0000
     20 C19         6.4302    2.0625    0.0000 CM        1 <0>         0.0000
     21 C20         7.1447    2.4750    0.0000 CT        1 <0>         0.0000
     22 O2          7.1447    3.3000    0.0000 OH        1 <0>         0.0000
     23 H1          5.7158    3.3000    0.0000 HC        1 <0>         0.0000
     24 H2          5.7158    3.3000    0.0000 HC        1 <0>         0.0000
     25 H3          5.7158    3.3000    0.0000 HC        1 <0>         0.0000
     26 H4          5.0013    2.0625    0.0000 HA        1 <0>         0.0000
     27 H5          4.2868    2.4750    0.0000 HA        1 <0>         0.0000
     28 H6          3.5724    2.0625    0.0000 HA        1 <0>         0.0000
     29 H7          2.8579    3.3000    0.0000 HC        1 <0>         0.0000
     30 H8          2.8579    3.3000    0.0000 HC        1 <0>         0.0000
     31 H9          2.8579    3.3000    0.0000 HC        1 <0>         0.0000
     32 H10         2.1434    2.0625    0.0000 HA        1 <0>         0.0000
     33 H11         2.1434    1.2375    0.0000 HA        1 <0>         0.0000
     34 H12         2.1434   -0.4125    0.0000 HC        1 <0>         0.0000
     35 H13         2.1434   -0.4125    0.0000 HC        1 <0>         0.0000
     36 H14         2.1434   -0.4125    0.0000 HC        1 <0>         0.0000
     37 H15         0.0000    0.0000    0.0000 HC        1 <0>         0.0000
     38 H16         0.0000    0.0000    0.0000 HC        1 <0>         0.0000
     39 H17         0.0000    0.8250    0.0000 HC        1 <0>         0.0000
     40 H18         0.0000    0.8250    0.0000 HC        1 <0>         0.0000
     41 H19         0.3272    1.9659    0.0000 HC        1 <0>         0.0000
     42 H20         0.3272    1.9659    0.0000 HC        1 <0>         0.0000
     43 H21         0.3272    1.9659    0.0000 HC        1 <0>         0.0000
     44 H22         1.1018    1.9659    0.0000 HC        1 <0>         0.0000
     45 H23         1.1018    1.9659    0.0000 HC        1 <0>         0.0000
     46 H24         1.1018    1.9659    0.0000 HC        1 <0>         0.0000
     47 H25         6.4302    2.0625    0.0000 HA        1 <0>         0.0000
     48 H26         7.1447    2.4750    0.0000 H1        1 <0>         0.0000
     49 H27         7.1447    2.4750    0.0000 H1        1 <0>         0.0000
     50 H28         7.1447    3.3000    0.0000 HO        1 <0>         0.0000
@<TRIPOS>BOND
     1    1    2 1
     2    2    3 1
     3    3    4 2
     4    4    5 1
     5    5    6 2
     6    6    7 1
     7    6    8 1
     8    8    9 2
     9    9   10 1
    10   10   11 2
    11   11   12 1
    12   11   13 1
    13   13   14 2
    14   13   15 1
    15   15   16 1
    16   16   17 1
    17   10   17 1
    18   17   18 1
    19   17   19 1
    20    2   20 2
    21   20   21 1
    22   21   22 1
    23    1   23 1
    24    1   24 1
    25    1   25 1
    26    3   26 1
    27    4   27 1
    28    5   28 1
    29    7   29 1
    30    7   30 1
    31    7   31 1
    32    8   32 1
    33    9   33 1
    34   12   34 1
    35   12   35 1
    36   12   36 1
    37   15   37 1
    38   15   38 1
    39   16   39 1
    40   16   40 1
    41   18   41 1
    42   18   42 1
    43   18   43 1
    44   19   44 1
    45   19   45 1
    46   19   46 1
    47   20   47 1
    48   21   48 1
    49   21   49 1
    50   22   50 1
@<TRIPOS>MOLECULE
2703
   85    88     0     0     0
SMALL
NO_CHARGES

@<TRIPOS>ATOM
      1 O1          4.3976   -0.1200    0.0000 OH        1 <0>         0.0000
      2 O2          8.6280   -0.9450    0.0000 OS        1 <0>         0.0000
      3 O3          2.0919   -3.0506    0.0000 OH        1 <0>         0.0000
      4 O4          8.6415    1.4573    0.0000 OH        1 <0>         0.0000
      5 O5          8.9361    0.0592    0.0000 O         1 <0>         0.0000
      6 O6          8.6280   -2.3740    0.0000 O         1 <0>         0.0000
      7 C1          5.8265   -1.7700    0.0000 CT        1 <0>         0.0000
      8 C2          5.1122   -1.3575    0.0000 CT        1 <0>         0.0000
      9 C3          6.5410   -1.3575    0.0000 CT        1 <0>         0.0000
     10 C4          4.3614   -1.7757    0.0000 CT        1 <0>         0.0000
     11 C5          4.3547   -2.6349    0.0000 CT        1 <0>         0.0000
     12 C6          6.5410   -0.5325    0.0000 CT        1 <0>         0.0000
     13 C7          5.8398   -2.6291    0.0000 CT        1 <0>         0.0000
     14 C8          5.1122   -0.5325    0.0000 CT        1 <0>         0.0000
     15 C9          5.0990   -3.0646    0.0000 CT        1 <0>         0.0000
     16 C10         5.8265   -0.1200    0.0000 CT        1 <0>         0.0000
     17 C11         7.3215   -1.6089    0.0000 CT        1 <0>         0.0000
     18 C12         3.5968   -1.3103    0.0000 CT        1 <0>         0.0000
     19 C13         3.5831   -3.0884    0.0000 CT        1 <0>         0.0000
     20 C14         6.3569   -2.4019    0.0000 CT        1 <0>         0.0000
     21 C15         7.3215   -0.2812    0.0000 CM        1 <0>         0.0000
     22 C16         7.8030   -0.9450    0.0000 CT        1 <0>         0.0000
     23 C17         6.8232   -2.1327    0.0000 CT        1 <0>         0.0000
     24 C18         4.3678   -0.9507    0.0000 CT        1 <0>         0.0000
     25 C19         2.8148   -1.7458    0.0000 CT        1 <0>         0.0000
     26 C20         2.8079   -2.6408    0.0000 CT        1 <0>         0.0000
     27 C21         3.5863   -3.9134    0.0000 CT        1 <0>         0.0000
     28 C22         7.5779    0.5030    0.0000 CM        1 <0>         0.0000
     29 C23         7.0270    1.1170    0.0000 CT        1 <0>         0.0000
     30 C24         8.3851    0.6732    0.0000 C         1 <0>         0.0000
     31 C25         9.0404   -1.6594    0.0000 C         1 <0>         0.0000
     32 C26         7.2832    1.9012    0.0000 CT        1 <0>         0.0000
     33 C27         9.8655   -1.6594    0.0000 CT        1 <0>         0.0000
     34 C28         6.7323    2.5152    0.0000 CM        1 <0>         0.0000
     35 C29         6.9886    3.2994    0.0000 CM        1 <0>         0.0000
     36 C30         6.4376    3.9134    0.0000 CT        1 <0>         0.0000
     37 C31         7.7958    3.4695    0.0000 CT        1 <0>         0.0000
     38 H1          5.6836   -1.0275    0.0000 HC        1 <0>         0.0000
     39 H2          4.3573   -3.2949    0.0000 HC        1 <0>         0.0000
     40 H3          6.6109    0.1238    0.0000 HC        1 <0>         0.0000
     41 H4          4.3976   -0.1200    0.0000 HO        1 <0>         0.0000
     42 H5          2.0919   -3.0506    0.0000 HO        1 <0>         0.0000
     43 H6          8.6415    1.4573    0.0000 HO        1 <0>         0.0000
     44 H7          5.8398   -2.6291    0.0000 HC        1 <0>         0.0000
     45 H8          5.8398   -2.6291    0.0000 HC        1 <0>         0.0000
     46 H9          5.1122   -0.5325    0.0000 H1        1 <0>         0.0000
     47 H10         5.0990   -3.0646    0.0000 HC        1 <0>         0.0000
     48 H11         5.0990   -3.0646    0.0000 HC        1 <0>         0.0000
     49 H12         5.8265   -0.1200    0.0000 HC        1 <0>         0.0000
     50 H13         5.8265   -0.1200    0.0000 HC        1 <0>         0.0000
     51 H14         7.3215   -1.6089    0.0000 HC        1 <0>         0.0000
     52 H15         7.3215   -1.6089    0.0000 HC        1 <0>         0.0000
     53 H16         3.5968   -1.3103    0.0000 HC        1 <0>         0.0000
     54 H17         3.5968   -1.3103    0.0000 HC        1 <0>         0.0000
     55 H18         3.5831   -3.0884    0.0000 HC        1 <0>         0.0000
     56 H19         6.3569   -2.4019    0.0000 HC        1 <0>         0.0000
     57 H20         6.3569   -2.4019    0.0000 HC        1 <0>         0.0000
     58 H21         6.3569   -2.4019    0.0000 HC        1 <0>         0.0000
     59 H22         7.8030   -0.9450    0.0000 H1        1 <0>         0.0000
     60 H23         6.8232   -2.1327    0.0000 HC        1 <0>         0.0000
     61 H24         6.8232   -2.1327    0.0000 HC        1 <0>         0.0000
     62 H25         6.8232   -2.1327    0.0000 HC        1 <0>         0.0000
     63 H26         4.3678   -0.9507    0.0000 HC        1 <0>         0.0000
     64 H27         4.3678   -0.9507    0.0000 HC        1 <0>         0.0000
     65 H28         4.3678   -0.9507    0.0000 HC        1 <0>         0.0000
     66 H29         2.8148   -1.7458    0.0000 HC        1 <0>         0.0000
     67 H30         2.8148   -1.7458    0.0000 HC        1 <0>         0.0000
     68 H31         2.8079   -2.6408    0.0000 H1        1 <0>         0.0000
     69 H32         3.5863   -3.9134    0.0000 HC        1 <0>         0.0000
     70 H33         3.5863   -3.9134    0.0000 HC        1 <0>         0.0000
     71 H34         3.5863   -3.9134    0.0000 HC        1 <0>         0.0000
     72 H35         7.0270    1.1170    0.0000 HC        1 <0>         0.0000
     73 H36         7.0270    1.1170    0.0000 HC        1 <0>         0.0000
     74 H37         7.2832    1.9012    0.0000 HC        1 <0>         0.0000
     75 H38         7.2832    1.9012    0.0000 HC        1 <0>         0.0000
     76 H39         9.8655   -1.6594    0.0000 HC        1 <0>         0.0000
     77 H40         9.8655   -1.6594    0.0000 HC        1 <0>         0.0000
     78 H41         9.8655   -1.6594    0.0000 HC        1 <0>         0.0000
     79 H42         6.7323    2.5152    0.0000 HA        1 <0>         0.0000
     80 H43         6.4376    3.9134    0.0000 HC        1 <0>         0.0000
     81 H44         6.4376    3.9134    0.0000 HC        1 <0>         0.0000
     82 H45         6.4376    3.9134    0.0000 HC        1 <0>         0.0000
     83 H46         7.7958    3.4695    0.0000 HC        1 <0>         0.0000
     84 H47         7.7958    3.4695    0.0000 HC        1 <0>         0.0000
     85 H48         7.7958    3.4695    0.0000 HC        1 <0>         0.0000
@<TRIPOS>BOND
     1    1   14 1
     2    2   22 1
     3    2   31 1
     4    3   26 1
     5    4   30 1
     6    5   30 2
     7    6   31 2
     8    7    8 1
     9    7    9 1
    10    7   13 1
    11    7   20 1
    12    8   10 1
    13    8   14 1
    14    8   38 1
    15    9   12 1
    16    9   17 1
    17    9   23 1
    18   10   11 1
    19   10   18 1
    20   10   24 1
    21   11   15 1
    22   11   19 1
    23   11   39 1
    24   12   16 1
    25   12   21 1
    26   12   40 1
    27   13   15 1
    28   14   16 1
    29   17   22 1
    30   18   25 1
    31   19   26 1
    32   19   27 1
    33   21   22 1
    34   21   28 2
    35   25   26 1
    36   28   29 1
    37   28   30 1
    38   29   32 1
    39   31   33 1
    40   32   34 1
    41   34   35 2
    42   35   36 1
    43   35   37 1
    44    1   41 1
    45    3   42 1
    46    4   43 1
    47   13   44 1
    48   13   45 1
    49   14   46 1
    50   15   47 1
    51   15   48 1
    52   16   49 1
    53   16   50 1
    54   17   51 1
    55   17   52 1
    56   18   53 1
    57   18   54 1
    58   19   55 1
    59   20   56 1
    60   20   57 1
    61   20   58 1
    62   22   59 1
    63   23   60 1
    64   23   61 1
    65   23   62 1
    66   24   63 1
    67   24   64 1
    68   24   65 1
    69   25   66 1
    70   25   67 1
    71   26   68 1
    72   27   69 1
    73   27   70 1
    74   27   71 1
    75   29   72 1
    76   29   73 1
    77   32   74 1
    78   32   75 1
    79   33   76 1
    80   33   77 1
    81   33   78 1
    82   34   79 1
    83   36   80 1
    84   36   81 1
    85   36   82 1
    86   37   83 1
    87   37   84 1
    88   37   85 1
@<TRIPOS>MOLECULE
Resveratrol
   29    30     0     0     0
SMALL
NO_CHARGES

@<TRIPOS>ATOM
      1 O1          1.4289   -1.6500    0.0000 OH        1 <0>         0.0000
      2 C1          1.4289   -2.4750    0.0000 CA        1 <0>         0.0000
      3 C2          2.1434   -2.8875    0.0000 CA        1 <0>         0.0000
      4 C3          2.1434   -3.7125    0.0000 CA        1 <0>         0.0000
      5 C4          1.4289   -4.1250    0.0000 CA        1 <0>         0.0000
      6 C5          1.4289   -4.9500    0.0000 CM        1 <0>         0.0000
      7 C6          2.1434   -5.3625    0.0000 CM        1 <0>         0.0000
      8 C7          2.1434   -6.1875    0.0000 CA        1 <0>         0.0000
      9 C8          2.8579   -6.6000    0.0000 CA        1 <0>         0.0000
     10 C9          2.8579   -7.4250    0.0000 CA        1 <0>         0.0000
     11 O2          3.5724   -7.8375    0.0000 OH        1 <0>         0.0000
     12 C10         2.1434   -7.8375    0.0000 CA        1 <0>         0.0000
     13 C11         1.4289   -7.4250    0.0000 CA        1 <0>         0.0000
     14 O3          0.7145   -7.8375    0.0000 OH        1 <0>         0.0000
     15 C12         1.4289   -6.6000    0.0000 CA        1 <0>         0.0000
     16 C13         0.7145   -3.7125    0.0000 CA        1 <0>         0.0000
     17 C14         0.7145   -2.8875    0.0000 CA        1 <0>         0.0000
     18 H1          1.4289   -1.6500    0.0000 HO        1 <0>         0.0000
     19 H2          2.1434   -2.8875    0.0000 HA        1 <0>         0.0000
     20 H3          2.1434   -3.7125    0.0000 HA        1 <0>         0.0000
     21 H4          1.4289   -4.9500    0.0000 HA        1 <0>         0.0000
     22 H5          2.1434   -5.3625    0.0000 HA        1 <0>         0.0000
     23 H6          2.8579   -6.6000    0.0000 HA        1 <0>         0.0000
     24 H7          3.5724   -7.8375    0.0000 HO        1 <0>         0.0000
     25 H8          2.1434   -7.8375    0.0000 HA        1 <0>         0.0000
     26 H9          0.7145   -7.8375    0.0000 HO        1 <0>         0.0000
     27 H10         1.4289   -6.6000    0.0000 HA        1 <0>         0.0000
     28 H11         0.7145   -3.7125    0.0000 HA        1 <0>         0.0000
     29 H12         0.7145   -2.8875    0.0000 HA        1 <0>         0.0000
@<TRIPOS>BOND
     1    1    2 1
     2    2    3 ar
     3    3    4 ar
     4    4    5 ar
     5    5    6 1
     6    6    7 2
     7    7    8 1
     8    8    9 ar
     9    9   10 ar
    10   10   11 1
    11   10   12 ar
    12   12   13 ar
    13   13   14 1
    14   13   15 ar
    15    8   15 ar
    16    5   16 ar
    17   16   17 ar
    18    2   17 ar
    19    1   18 1
    20    3   19 1
    21    4   20 1
    22    6   21 1
    23    7   22 1
    24    9   23 1
    25   11   24 1
    26   12   25 1
    27   14   26 1
    28   15   27 1
    29   16   28 1
    30   17   29 1
@<TRIPOS>MOLECULE
*****
   88    91     0     0     0
SMALL
NO_CHARGES

@<TRIPOS>ATOM
      1 O1          5.7158   -4.9500    0.0000 OH        1 <0>         0.0000
      2 C1          5.0013   -5.3625    0.0000 CT        1 <0>         0.0000
      3 C2          5.0013   -6.1875    0.0000 CT        1 <0>         0.0000
      4 O2          4.2868   -6.6000    0.0000 OS        1 <0>         0.0000
      5 C3          4.2868   -7.4250    0.0000 CT        1 <0>         0.0000
      6 O3          3.5724   -7.8375    0.0000 OS        1 <0>         0.0000
      7 C4          2.8579   -7.4250    0.0000 CT        1 <0>         0.0000
      8 C5          2.1434   -7.8375    0.0000 CT        1 <0>         0.0000
      9 C6          2.1434   -8.6625    0.0000 CT        1 <0>         0.0000
     10 O4          1.4289   -9.0750    0.0000 OH        1 <0>         0.0000
     11 O5          1.4289   -7.4250    0.0000 OS        1 <0>         0.0000
     12 C7          1.4289   -6.6000    0.0000 CT        1 <0>         0.0000
     13 O6          0.7145   -6.1875    0.0000 OS        1 <0>         0.0000
     14 C8          0.0000   -6.6000    0.0000 CT        1 <0>         0.0000
     15 C9         -0.7145   -6.1875    0.0000 CT        1 <0>         0.0000
     16 C10        -0.7145   -5.3625    0.0000 CT        1 <0>         0.0000
     17 O7         -1.4289   -4.9500    0.0000 OH        1 <0>         0.0000
     18 O8         -1.4289   -6.6000    0.0000 OS        1 <0>         0.0000
     19 C11        -1.4289   -7.4250    0.0000 CT        1 <0>         0.0000
     20 O9         -2.1434   -7.8375    0.0000 OS        1 <0>         0.0000
     21 C12        -2.8579   -7.4250    0.0000 CT        1 <0>         0.0000
     22 C13        -3.5724   -7.8375    0.0000 CT        1 <0>         0.0000
     23 C14        -3.5724   -8.6625    0.0000 CT        1 <0>         0.0000
     24 O10        -4.2868   -9.0750    0.0000 OH        1 <0>         0.0000
     25 O11        -4.2868   -7.4250    0.0000 OS        1 <0>         0.0000
     26 C15        -4.2868   -6.6000    0.0000 CT        1 <0>         0.0000
     27 O12        -5.0993   -6.7433    0.0000 OH        1 <0>         0.0000
     28 O13        -4.5690   -5.8248    0.0000 OH        1 <0>         0.0000
     29 C16        -3.5724   -6.1875    0.0000 CT        1 <0>         0.0000
     30 O14        -3.5724   -5.3625    0.0000 OH        1 <0>         0.0000
     31 C17        -2.8579   -6.6000    0.0000 CT        1 <0>         0.0000
     32 O15        -2.1434   -6.1875    0.0000 OH        1 <0>         0.0000
     33 C18        -0.7145   -7.8375    0.0000 CT        1 <0>         0.0000
     34 O16        -0.7145   -8.6625    0.0000 OH        1 <0>         0.0000
     35 C19         0.0000   -7.4250    0.0000 CT        1 <0>         0.0000
     36 O17         0.7145   -7.8375    0.0000 OH        1 <0>         0.0000
     37 C20         2.1434   -6.1875    0.0000 CT        1 <0>         0.0000
     38 O18         2.1434   -5.3625    0.0000 OH        1 <0>         0.0000
     39 C21         2.8579   -6.6000    0.0000 CT        1 <0>         0.0000
     40 O19         3.5724   -6.1875    0.0000 OH        1 <0>         0.0000
     41 C22         5.0013   -7.8375    0.0000 CT        1 <0>         0.0000
     42 O20         5.0013   -8.6625    0.0000 OH        1 <0>         0.0000
     43 C23         5.7158   -7.4250    0.0000 CT        1 <0>         0.0000
     44 O21         6.4302   -7.8375    0.0000 OH        1 <0>         0.0000
     45 C24         5.7158   -6.6000    0.0000 CT        1 <0>         0.0000
     46 O22         6.4302   -6.1875    0.0000 OH        1 <0>         0.0000
     47 H1          5.7158   -4.9500    0.0000 HO        1 <0>         0.0000
     48 H2          5.0013   -5.3625    0.0000 H1        1 <0>         0.0000
     49 H3          5.0013   -5.3625    0.0000 H1        1 <0>         0.0000
     50 H4          5.0013   -6.1875    0.0000 H1        1 <0>         0.0000
     51 H5          4.2868   -7.4250    0.0000 H2        1 <0>         0.0000
     52 H6          2.8579   -7.4250    0.0000 H1        1 <0>         0.0000
     53 H7          2.1434   -7.8375    0.0000 H1        1 <0>         0.0000
     54 H8          2.1434   -8.6625    0.0000 H1        1 <0>         0.0000
     55 H9          2.1434   -8.6625    0.0000 H1        1 <0>         0.0000
     56 H10         1.4289   -9.0750    0.0000 HO        1 <0>         0.0000
     57 H11         1.4289   -6.6000    0.0000 H2        1 <0>         0.0000
     58 H12         0.0000   -6.6000    0.0000 H1        1 <0>         0.0000
     59 H13        -0.7145   -6.1875    0.0000 H1        1 <0>         0.0000
     60 H14        -0.7145   -5.3625    0.0000 H1        1 <0>         0.0000
     61 H15        -0.7145   -5.3625    0.0000 H1        1 <0>         0.0000
     62 H16        -1.4289   -4.9500    0.0000 HO        1 <0>         0.0000
     63 H17        -1.4289   -7.4250    0.0000 H2        1 <0>         0.0000
     64 H18        -2.8579   -7.4250    0.0000 H1        1 <0>         0.0000
     65 H19        -3.5724   -7.8375    0.0000 H1        1 <0>         0.0000
     66 H20        -3.5724   -8.6625    0.0000 H1        1 <0>         0.0000
     67 H21        -3.5724   -8.6625    0.0000 H1        1 <0>         0.0000
     68 H22        -4.2868   -9.0750    0.0000 HO        1 <0>         0.0000
     69 H23        -5.0993   -6.7433    0.0000 HX        1 <0>         0.0000
     70 H24        -4.5690   -5.8248    0.0000 HX        1 <0>         0.0000
     71 H25        -3.5724   -6.1875    0.0000 H1        1 <0>         0.0000
     72 H26        -3.5724   -5.3625    0.0000 HO        1 <0>         0.0000
     73 H27        -2.8579   -6.6000    0.0000 H1        1 <0>         0.0000
     74 H28        -2.1434   -6.1875    0.0000 HO        1 <0>         0.0000
     75 H29        -0.7145   -7.8375    0.0000 H1        1 <0>         0.0000
     76 H30        -0.7145   -8.6625    0.0000 HO        1 <0>         0.0000
     77 H31         0.0000   -7.4250    0.0000 H1        1 <0>         0.0000
     78 H32         0.7145   -7.8375    0.0000 HO        1 <0>         0.0000
     79 H33         2.1434   -6.1875    0.0000 H1        1 <0>         0.0000
     80 H34         2.1434   -5.3625    0.0000 HO        1 <0>         0.0000
     81 H35         2.8579   -6.6000    0.0000 H1        1 <0>         0.0000
     82 H36         3.5724   -6.1875    0.0000 HO        1 <0>         0.0000
     83 H37         5.0013   -7.8375    0.0000 H1        1 <0>         0.0000
     84 H38         5.0013   -8.6625    0.0000 HO        1 <0>         0.0000
     85 H39         5.7158   -7.4250    0.0000 H1        1 <0>         0.0000
     86 H40         6.4302   -7.8375    0.0000 HO        1 <0>         0.0000
     87 H41         5.7158   -6.6000    0.0000 H1        1 <0>         0.0000
     88 H42         6.4302   -6.1875    0.0000 HO        1 <0>         0.0000
@<TRIPOS>BOND
     1    1    2 1
     2    2    3 1
     3    3    4 1
     4    4    5 1
     5    5    6 1
     6    6    7 1
     7    7    8 1
     8    8    9 1
     9    9   10 1
    10    8   11 1
    11   11   12 1
    12   12   13 1
    13   13   14 1
    14   14   15 1
    15   15   16 1
    16   16   17 1
    17   15   18 1
    18   18   19 1
    19   19   20 1
    20   20   21 1
    21   21   22 1
    22   22   23 1
    23   23   24 1
    24   22   25 1
    25   25   26 1
    26   26   27 1
    27   26   28 1
    28   26   29 1
    29   29   30 1
    30   29   31 1
    31   21   31 1
    32   31   32 1
    33   19   33 1
    34   33   34 1
    35   33   35 1
    36   14   35 1
    37   35   36 1
    38   12   37 1
    39   37   38 1
    40   37   39 1
    41    7   39 1
    42   39   40 1
    43    5   41 1
    44   41   42 1
    45   41   43 1
    46   43   44 1
    47   43   45 1
    48    3   45 1
    49   45   46 1
    50    1   47 1
    51    2   48 1
    52    2   49 1
    53    3   50 1
    54    5   51 1
    55    7   52 1
    56    8   53 1
    57    9   54 1
    58    9   55 1
    59   10   56 1
    60   12   57 1
    61   14   58 1
    62   15   59 1
    63   16   60 1
    64   16   61 1
    65   17   62 1
    66   19   63 1
    67   21   64 1
    68   22   65 1
    69   23   66 1
    70   23   67 1
    71   24   68 1
    72   27   69 1
    73   28   70 1
    74   29   71 1
    75   30   72 1
    76   31   73 1
    77   32   74 1
    78   33   75 1
    79   34   76 1
    80   35   77 1
    81   36   78 1
    82   37   79 1
    83   38   80 1
    84   39   81 1
    85   40   82 1
    86   41   83 1
    87   42   84 1
    88   43   85 1
    89   44   86 1
    90   45   87 1
    91   46   88 1
@<TRIPOS>MOLECULE
*****
   26    26     0     0     0
SMALL
NO_CHARGES

@<TRIPOS>ATOM
      1 C1          2.1434    2.0625    0.0000 CT        1 <0>         0.0000
      2 O1          2.1434    1.2375    0.0000 OS        1 <0>         0.0000
      3 C2          1.4289    0.8250    0.0000 CT        1 <0>         0.0000
      4 C3          1.4289    0.0000    0.0000 CT        1 <0>         0.0000
      5 O2          2.1434   -0.4125    0.0000 OH        1 <0>         0.0000
      6 C4          0.7145   -0.4125    0.0000 CT        1 <0>         0.0000
      7 O3          0.7145   -1.2375    0.0000 OH        1 <0>         0.0000
      8 C5          0.0000    0.0000    0.0000 CT        1 <0>         0.0000
      9 O4         -0.7145   -0.4125    0.0000 OH        1 <0>         0.0000
     10 O5          0.0000    0.8250    0.0000 OS        1 <0>         0.0000
     11 C6          0.7145    1.2375    0.0000 CT        1 <0>         0.0000
     12 C7          0.7145    2.0625    0.0000 C         1 <0>         0.0000
     13 O6          1.4289    2.4750    0.0000 OH        1 <0>         0.0000
     14 O7          0.0000    2.4750    0.0000 O         1 <0>         0.0000
     15 H1          2.1434    2.0625    0.0000 H1        1 <0>         0.0000
     16 H2          2.1434    2.0625    0.0000 H1        1 <0>         0.0000
     17 H3          2.1434    2.0625    0.0000 H1        1 <0>         0.0000
     18 H4          1.4289    0.8250    0.0000 H1        1 <0>         0.0000
     19 H5          1.4289    0.0000    0.0000 H1        1 <0>         0.0000
     20 H6          2.1434   -0.4125    0.0000 HO        1 <0>         0.0000
     21 H7          0.7145   -0.4125    0.0000 H1        1 <0>         0.0000
     22 H8          0.7145   -1.2375    0.0000 HO        1 <0>         0.0000
     23 H9          0.0000    0.0000    0.0000 H2        1 <0>         0.0000
     24 H10        -0.7145   -0.4125    0.0000 HO        1 <0>         0.0000
     25 H11         0.7145    1.2375    0.0000 H1        1 <0>         0.0000
     26 H12         1.4289    2.4750    0.0000 HO        1 <0>         0.0000
@<TRIPOS>BOND
     1    1    2 1
     2    2    3 1
     3    3    4 1
     4    4    5 1
     5    4    6 1
     6    6    7 1
     7    6    8 1
     8    8    9 1
     9    8   10 1
    10   10   11 1
    11    3   11 1
    12   11   12 1
    13   12   13 1
    14   12   14 2
    15    1   15 1
    16    1   16 1
    17    1   17 1
    18    3   18 1
    19    4   19 1
    20    5   20 1
    21    6   21 1
    22    7   22 1
    23    8   23 1
    24    9   24 1
    25   11   25 1
    26   13   26 1
@<TRIPOS>MOLECULE
YZ9
   27    28     0     0     0
SMALL
NO_CHARGES

@<TRIPOS>ATOM
      1 C1          3.0954   -0.1385    0.0000 CT        1 <0>         0.0000
      2 C2          2.3809   -0.5510    0.0000 CT        1 <0>         0.0000
      3 O1          0.9520   -1.3760    0.0000 O         1 <0>         0.0000
      4 O2          1.6665   -0.1385    0.0000 OS        1 <0>         0.0000
      5 C3         -1.9059   -0.5510    0.0000 CA        1 <0>         0.0000
      6 C4         -0.4770   -0.5510    0.0000 CA        1 <0>         0.0000
      7 C5         -1.9059    1.0990    0.0000 CA        1 <0>         0.0000
      8 O3         -0.4770    1.0990    0.0000 OS        1 <0>         0.0000
      9 C6         -1.1914   -0.1385    0.0000 CB        1 <0>         0.0000
     10 C7         -1.1914    0.6865    0.0000 CB        1 <0>         0.0000
     11 C8          0.2375    0.6865    0.0000 C         1 <0>         0.0000
     12 C9          0.9520   -0.5510    0.0000 C         1 <0>         0.0000
     13 O4         -3.3348    1.0990    0.0000 OH        1 <0>         0.0000
     14 O5          0.9520    1.0990    0.0000 O         1 <0>         0.0000
     15 C10        -2.6204   -0.1385    0.0000 CA        1 <0>         0.0000
     16 C11         0.2375   -0.1385    0.0000 CA        1 <0>         0.0000
     17 C12        -2.6204    0.6865    0.0000 CA        1 <0>         0.0000
     18 H1          3.0954   -0.1385    0.0000 HC        1 <0>         0.0000
     19 H2          3.0954   -0.1385    0.0000 HC        1 <0>         0.0000
     20 H3          3.0954   -0.1385    0.0000 HC        1 <0>         0.0000
     21 H4          2.3809   -0.5510    0.0000 H1        1 <0>         0.0000
     22 H5          2.3809   -0.5510    0.0000 H1        1 <0>         0.0000
     23 H6         -1.9059   -0.5510    0.0000 HA        1 <0>         0.0000
     24 H7         -0.4770   -0.5510    0.0000 HA        1 <0>         0.0000
     25 H8         -1.9059    1.0990    0.0000 HA        1 <0>         0.0000
     26 H9         -3.3348    1.0990    0.0000 HO        1 <0>         0.0000
     27 H10        -2.6204   -0.1385    0.0000 HA        1 <0>         0.0000
@<TRIPOS>BOND
     1    1    2 1
     2    2    4 1
     3    3   12 2
     4    4   12 1
     5    5    9 ar
     6    5   15 ar
     7    6    9 1
     8    6   16 2
     9    7   10 ar
    10    7   17 ar
    11    8   10 1
    12    8   11 1
    13    9   10 ar
    14   11   14 2
    15   11   16 1
    16   12   16 1
    17   13   17 1
    18   15   17 ar
    19    1   18 1
    20    1   19 1
    21    1   20 1
    22    2   21 1
    23    2   22 1
    24    5   23 1
    25    6   24 1
    26    7   25 1
    27   13   26 1
    28   15   27 1
@<TRIPOS>MOLECULE
*****
   20    20     0     0     0
SMALL
NO_CHARGES

@<TRIPOS>ATOM
      1 O1          2.1434    1.2375    0.0000 OH        1 <0>         0.0000
      2 C1          1.4289    0.8250    0.0000 CT        1 <0>         0.0000
      3 O2          1.4289    0.0000    0.0000 OS        1 <0>         0.0000
      4 C2          0.7145   -0.4125    0.0000 CM        1 <0>         0.0000
      5 C3          0.0000    0.0000    0.0000 CM        1 <0>         0.0000
      6 C4          0.0000    0.8250    0.0000 CT        1 <0>         0.0000
      7 O3         -0.7145    1.2375    0.0000 OH        1 <0>         0.0000
      8 C5          0.7145    1.2375    0.0000 CT        1 <0>         0.0000
      9 O4          0.7145    2.0625    0.0000 OH        1 <0>         0.0000
     10 C6          0.7145   -1.2375    0.0000 C         1 <0>         0.0000
     11 O5          1.4289   -1.6500    0.0000 OH        1 <0>         0.0000
     12 O6          0.0000   -1.6500    0.0000 O         1 <0>         0.0000
     13 H1          2.1434    1.2375    0.0000 HO        1 <0>         0.0000
     14 H2          1.4289    0.8250    0.0000 H2        1 <0>         0.0000
     15 H3          0.0000    0.0000    0.0000 HA        1 <0>         0.0000
     16 H4          0.0000    0.8250    0.0000 H1        1 <0>         0.0000
     17 H5         -0.7145    1.2375    0.0000 HO        1 <0>         0.0000
     18 H6          0.7145    1.2375    0.0000 H1        1 <0>         0.0000
     19 H7          0.7145    2.0625    0.0000 HO        1 <0>         0.0000
     20 H8          1.4289   -1.6500    0.0000 HO        1 <0>         0.0000
@<TRIPOS>BOND
     1    1    2 1
     2    2    3 1
     3    3    4 1
     4    4    5 2
     5    5    6 1
     6    6    7 1
     7    6    8 1
     8    2    8 1
     9    8    9 1
    10    4   10 1
    11   10   11 1
    12   10   12 2
    13    1   13 1
    14    2   14 1
    15    5   15 1
    16    6   16 1
    17    7   17 1
    18    8   18 1
    19    9   19 1
    20   11   20 1
@<TRIPOS>MOLECULE
*****
   55    58     0     0     0
SMALL
NO_CHARGES

@<TRIPOS>ATOM
      1 C1         -4.8171    0.6320    0.0000 CT        1 <0>         0.0000
      2 C2         -4.2868    0.0000    0.0000 CT        1 <0>         0.0000
      3 C3         -3.7565    0.6320    0.0000 CT        1 <0>         0.0000
      4 C4         -5.0013   -0.4125    0.0000 CT        1 <0>         0.0000
      5 C5         -5.0013   -1.2375    0.0000 CT        1 <0>         0.0000
      6 C6         -4.2868   -1.6500    0.0000 CT        1 <0>         0.0000
      7 C7         -4.8171   -2.2820    0.0000 CT        1 <0>         0.0000
      8 C8         -3.7565   -2.2820    0.0000 CT        1 <0>         0.0000
      9 C9         -3.5724   -1.2375    0.0000 CA        1 <0>         0.0000
     10 C10        -3.5724   -0.4125    0.0000 CA        1 <0>         0.0000
     11 C11        -2.8579    0.0000    0.0000 CA        1 <0>         0.0000
     12 C12        -2.1434   -0.4125    0.0000 CA        1 <0>         0.0000
     13 C13        -2.1434   -1.2375    0.0000 CA        1 <0>         0.0000
     14 C14        -2.8579   -1.6500    0.0000 CA        1 <0>         0.0000
     15 C15        -1.4289   -1.6500    0.0000 C         1 <0>         0.0000
     16 O1         -1.4289   -2.4750    0.0000 O         1 <0>         0.0000
     17 C16        -0.7145   -1.2375    0.0000 CA        1 <0>         0.0000
     18 C17         0.0000   -1.6500    0.0000 CA        1 <0>         0.0000
     19 C18         0.7145   -1.2375    0.0000 CB        1 <0>         0.0000
     20 C19         0.7145   -0.4125    0.0000 CB        1 <0>         0.0000
     21 C20         0.0000    0.0000    0.0000 CA        1 <0>         0.0000
     22 C21        -0.7145   -0.4125    0.0000 CA        1 <0>         0.0000
     23 C22         1.4289    0.0000    0.0000 CA        1 <0>         0.0000
     24 C23         2.1434   -0.4125    0.0000 CA        1 <0>         0.0000
     25 C24         2.1434   -1.2375    0.0000 CA        1 <0>         0.0000
     26 C25         1.4289   -1.6500    0.0000 CA        1 <0>         0.0000
     27 C26         2.8579    0.0000    0.0000 C         1 <0>         0.0000
     28 O2          2.8579    0.8250    0.0000 OH        1 <0>         0.0000
     29 O3          3.5724   -0.4125    0.0000 O         1 <0>         0.0000
     30 H1         -4.8171    0.6320    0.0000 HC        1 <0>         0.0000
     31 H2         -4.8171    0.6320    0.0000 HC        1 <0>         0.0000
     32 H3         -4.8171    0.6320    0.0000 HC        1 <0>         0.0000
     33 H4         -3.7565    0.6320    0.0000 HC        1 <0>         0.0000
     34 H5         -3.7565    0.6320    0.0000 HC        1 <0>         0.0000
     35 H6         -3.7565    0.6320    0.0000 HC        1 <0>         0.0000
     36 H7         -5.0013   -0.4125    0.0000 HC        1 <0>         0.0000
     37 H8         -5.0013   -0.4125    0.0000 HC        1 <0>         0.0000
     38 H9         -5.0013   -1.2375    0.0000 HC        1 <0>         0.0000
     39 H10        -5.0013   -1.2375    0.0000 HC        1 <0>         0.0000
     40 H11        -4.8171   -2.2820    0.0000 HC        1 <0>         0.0000
     41 H12        -4.8171   -2.2820    0.0000 HC        1 <0>         0.0000
     42 H13        -4.8171   -2.2820    0.0000 HC        1 <0>         0.0000
     43 H14        -3.7565   -2.2820    0.0000 HC        1 <0>         0.0000
     44 H15        -3.7565   -2.2820    0.0000 HC        1 <0>         0.0000
     45 H16        -3.7565   -2.2820    0.0000 HC        1 <0>         0.0000
     46 H17        -2.8579    0.0000    0.0000 HA        1 <0>         0.0000
     47 H18        -2.1434   -0.4125    0.0000 HA        1 <0>         0.0000
     48 H19        -2.8579   -1.6500    0.0000 HA        1 <0>         0.0000
     49 H20         0.0000   -1.6500    0.0000 HA        1 <0>         0.0000
     50 H21         0.0000    0.0000    0.0000 HA        1 <0>         0.0000
     51 H22        -0.7145   -0.4125    0.0000 HA        1 <0>         0.0000
     52 H23         1.4289    0.0000    0.0000 HA        1 <0>         0.0000
     53 H24         2.1434   -1.2375    0.0000 HA        1 <0>         0.0000
     54 H25         1.4289   -1.6500    0.0000 HA        1 <0>         0.0000
     55 H26         2.8579    0.8250    0.0000 HO        1 <0>         0.0000
@<TRIPOS>BOND
     1    1    2 1
     2    2    3 1
     3    2    4 1
     4    4    5 1
     5    5    6 1
     6    6    7 1
     7    6    8 1
     8    6    9 1
     9    9   10 ar
    10    2   10 1
    11   10   11 ar
    12   11   12 ar
    13   12   13 ar
    14   13   14 ar
    15    9   14 ar
    16   13   15 1
    17   15   16 2
    18   15   17 1
    19   17   18 ar
    20   18   19 ar
    21   19   20 ar
    22   20   21 ar
    23   21   22 ar
    24   17   22 ar
    25   20   23 ar
    26   23   24 ar
    27   24   25 ar
    28   25   26 ar
    29   19   26 ar
    30   24   27 1
    31   27   28 1
    32   27   29 2
    33    1   30 1
    34    1   31 1
    35    1   32 1
    36    3   33 1
    37    3   34 1
    38    3   35 1
    39    4   36 1
    40    4   37 1
    41    5   38 1
    42    5   39 1
    43    7   40 1
    44    7   41 1
    45    7   42 1
    46    8   43 1
    47    8   44 1
    48    8   45 1
    49   11   46 1
    50   12   47 1
    51   14   48 1
    52   18   49 1
    53   21   50 1
    54   22   51 1
    55   23   52 1
    56   25   53 1
    57   26   54 1
    58   28   55 1
@<TRIPOS>MOLECULE
*****
   45    46     0     0     0
SMALL
NO_CHARGES

@<TRIPOS>ATOM
      1 C1          0.0000    2.4750    0.0000 CT        1 <0>         0.0000
      2 C2          0.7145    2.0625    0.0000 CT        1 <0>         0.0000
      3 O1         -0.7145    2.0625    0.0000 OS        1 <0>         0.0000
      4 C3          0.7145    1.2375    0.0000 CT        1 <0>         0.0000
      5 C4         -0.7145    1.2375    0.0000 CT        1 <0>         0.0000
      6 C5          0.0000    0.8250    0.0000 CT        1 <0>         0.0000
      7 O2          0.0000    3.3000    0.0000 OH        1 <0>         0.0000
      8 O3          1.4289    2.4750    0.0000 OH        1 <0>         0.0000
      9 O4          1.4289    0.8250    0.0000 OH        1 <0>         0.0000
     10 O5          0.0000    0.0000    0.0000 OS        1 <0>         0.0000
     11 C6         -1.4290    0.8250    0.0000 CT        1 <0>         0.0000
     12 O6         -2.1434    1.2375    0.0000 OH        1 <0>         0.0000
     13 C7         -0.7145   -0.4125    0.0000 CT        1 <0>         0.0000
     14 C8         -0.7145   -1.2375    0.0000 CT        1 <0>         0.0000
     15 O7         -1.4290    0.0000    0.0000 OS        1 <0>         0.0000
     16 C9         -1.4290   -1.6500    0.0000 CT        1 <0>         0.0000
     17 C10        -2.1434   -0.4125    0.0000 CT        1 <0>         0.0000
     18 C11        -2.1434   -1.2375    0.0000 CT        1 <0>         0.0000
     19 O8          0.0000   -1.6500    0.0000 OH        1 <0>         0.0000
     20 O9         -1.4290   -2.4750    0.0000 OH        1 <0>         0.0000
     21 O10        -2.8579   -1.6500    0.0000 OH        1 <0>         0.0000
     22 C12        -2.8579    0.0000    0.0000 CT        1 <0>         0.0000
     23 O11        -3.5724   -0.4125    0.0000 OH        1 <0>         0.0000
     24 H1          0.0000    2.4750    0.0000 H2        1 <0>         0.0000
     25 H2          0.7145    2.0625    0.0000 H1        1 <0>         0.0000
     26 H3          0.7145    1.2375    0.0000 H1        1 <0>         0.0000
     27 H4         -0.7145    1.2375    0.0000 H1        1 <0>         0.0000
     28 H5          0.0000    0.8250    0.0000 H1        1 <0>         0.0000
     29 H6          0.0000    3.3000    0.0000 HO        1 <0>         0.0000
     30 H7          1.4289    2.4750    0.0000 HO        1 <0>         0.0000
     31 H8          1.4289    0.8250    0.0000 HO        1 <0>         0.0000
     32 H9         -1.4290    0.8250    0.0000 H1        1 <0>         0.0000
     33 H10        -1.4290    0.8250    0.0000 H1        1 <0>         0.0000
     34 H11        -2.1434    1.2375    0.0000 HO        1 <0>         0.0000
     35 H12        -0.7145   -0.4125    0.0000 H2        1 <0>         0.0000
     36 H13        -0.7145   -1.2375    0.0000 H1        1 <0>         0.0000
     37 H14        -1.4290   -1.6500    0.0000 H1        1 <0>         0.0000
     38 H15        -2.1434   -0.4125    0.0000 H1        1 <0>         0.0000
     39 H16        -2.1434   -1.2375    0.0000 H1        1 <0>         0.0000
     40 H17         0.0000   -1.6500    0.0000 HO        1 <0>         0.0000
     41 H18        -1.4290   -2.4750    0.0000 HO        1 <0>         0.0000
     42 H19        -2.8579   -1.6500    0.0000 HO        1 <0>         0.0000
     43 H20        -2.8579    0.0000    0.0000 H1        1 <0>         0.0000
     44 H21        -2.8579    0.0000    0.0000 H1        1 <0>         0.0000
     45 H22        -3.5724   -0.4125    0.0000 HO        1 <0>         0.0000
@<TRIPOS>BOND
     1    1    2 1
     2    1    3 1
     3    1    7 1
     4    2    4 1
     5    2    8 1
     6    3    5 1
     7    4    6 1
     8    4    9 1
     9    5    6 1
    10    5   11 1
    11    6   10 1
    12   11   12 1
    13   13   14 1
    14   13   15 1
    15   10   13 1
    16   14   16 1
    17   14   19 1
    18   15   17 1
    19   16   18 1
    20   16   20 1
    21   17   18 1
    22   17   22 1
    23   18   21 1
    24   22   23 1
    25    1   24 1
    26    2   25 1
    27    4   26 1
    28    5   27 1
    29    6   28 1
    30    7   29 1
    31    8   30 1
    32    9   31 1
    33   11   32 1
    34   11   33 1
    35   12   34 1
    36   13   35 1
    37   14   36 1
    38   16   37 1
    39   17   38 1
    40   18   39 1
    41   19   40 1
    42   20   41 1
    43   21   42 1
    44   22   43 1
    45   22   44 1
    46   23   45 1
@<TRIPOS>MOLECULE
*****
   18    18     0     0     0
SMALL
NO_CHARGES

@<TRIPOS>ATOM
      1 O1          2.1434    2.0625    0.0000 OH        1 <0>         0.0000
      2 C1          2.1434    1.2375    0.0000 C         1 <0>         0.0000
      3 O2          2.8579    0.8250    0.0000 O         1 <0>         0.0000
      4 C2          1.4289    0.8250    0.0000 CA        1 <0>         0.0000
      5 C3          1.4289    0.0000    0.0000 CA        1 <0>         0.0000
      6 C4          0.7145   -0.4125    0.0000 CA        1 <0>         0.0000
      7 C5          0.0000    0.0000    0.0000 CA        1 <0>         0.0000
      8 C6          0.0000    0.8250    0.0000 CA        1 <0>         0.0000
      9 C7          0.7145    1.2375    0.0000 CA        1 <0>         0.0000
     10 C8          0.7145    2.0625    0.0000 C         1 <0>         0.0000
     11 O3          1.4289    2.4750    0.0000 OH        1 <0>         0.0000
     12 O4          0.0000    2.4750    0.0000 O         1 <0>         0.0000
     13 H1          2.1434    2.0625    0.0000 HO        1 <0>         0.0000
     14 H2          1.4289    0.0000    0.0000 HA        1 <0>         0.0000
     15 H3          0.7145   -0.4125    0.0000 HA        1 <0>         0.0000
     16 H4          0.0000    0.0000    0.0000 HA        1 <0>         0.0000
     17 H5          0.0000    0.8250    0.0000 HA        1 <0>         0.0000
     18 H6          1.4289    2.4750    0.0000 HO        1 <0>         0.0000
@<TRIPOS>BOND
     1    1    2 1
     2    2    3 2
     3    2    4 1
     4    4    5 ar
     5    5    6 ar
     6    6    7 ar
     7    7    8 ar
     8    8    9 ar
     9    4    9 ar
    10    9   10 1
    11   10   11 1
    12   10   12 2
    13    1   13 1
    14    5   14 1
    15    6   15 1
    16    7   16 1
    17    8   17 1
    18   11   18 1
@<TRIPOS>MOLECULE
PMA
   24    24     0     0     0
SMALL
NO_CHARGES

@<TRIPOS>ATOM
      1 C1          0.6434    0.3118    0.0000 CA        1 <0>         0.0000
      2 C2          0.6434   -0.5132    0.0000 CA        1 <0>         0.0000
      3 C3         -0.0711    0.7243    0.0000 CA        1 <0>         0.0000
      4 C4         -0.7855   -0.5132    0.0000 CA        1 <0>         0.0000
      5 C5         -0.7855    0.3118    0.0000 CA        1 <0>         0.0000
      6 C6         -0.0711   -0.9257    0.0000 CA        1 <0>         0.0000
      7 C7         -1.5000   -0.9257    0.0000 C         1 <0>         0.0000
      8 C8         -1.5000    0.7243    0.0000 C         1 <0>         0.0000
      9 C9          1.3579    0.7243    0.0000 C         1 <0>         0.0000
     10 C10         1.3579   -0.9257    0.0000 C         1 <0>         0.0000
     11 O1          2.0723    0.3118    0.0000 O         1 <0>         0.0000
     12 O2          1.3579    1.5493    0.0000 OH        1 <0>         0.0000
     13 O3          1.3579   -1.7507    0.0000 O         1 <0>         0.0000
     14 O4          2.0723   -0.5132    0.0000 OH        1 <0>         0.0000
     15 O5         -1.5000   -1.7507    0.0000 O         1 <0>         0.0000
     16 O6         -2.2145   -0.5132    0.0000 OH        1 <0>         0.0000
     17 O7         -2.2145    0.3118    0.0000 O         1 <0>         0.0000
     18 O8         -1.5000    1.5493    0.0000 OH        1 <0>         0.0000
     19 H1         -0.0711    0.7243    0.0000 HA        1 <0>         0.0000
     20 H2         -0.0711   -0.9257    0.0000 HA        1 <0>         0.0000
     21 H3          1.3579    1.5493    0.0000 HO        1 <0>         0.0000
     22 H4          2.0723   -0.5132    0.0000 HO        1 <0>         0.0000
     23 H5         -2.2145   -0.5132    0.0000 HO        1 <0>         0.0000
     24 H6         -1.5000    1.5493    0.0000 HO        1 <0>         0.0000
@<TRIPOS>BOND
     1    1    2 ar
     2    1    3 ar
     3    1    9 1
     4    2    6 ar
     5    2   10 1
     6    3    5 ar
     7    4    5 ar
     8    4    6 ar
     9    4    7 1
    10    5    8 1
    11    7   15 2
    12    7   16 1
    13    8   17 2
    14    8   18 1
    15    9   11 2
    16    9   12 1
    17   10   13 2
    18   10   14 1
    19    3   19 1
    20    6   20 1
    21   12   21 1
    22   14   22 1
    23   16   23 1
    24   18   24 1
@<TRIPOS>MOLECULE
FTT
   45    44     0     0     0
SMALL
NO_CHARGES

@<TRIPOS>ATOM
      1 C1         -4.6445    0.1646    0.0000 C         1 <0>         0.0000
      2 C2         -3.9300   -0.2479    0.0000 CT        1 <0>         0.0000
      3 C3         -3.2154    0.1646    0.0000 CT        1 <0>         0.0000
      4 C4         -2.5010   -0.2479    0.0000 CT        1 <0>         0.0000
      5 C5         -1.7864    0.1646    0.0000 CT        1 <0>         0.0000
      6 C6         -1.0719   -0.2479    0.0000 CT        1 <0>         0.0000
      7 C7         -0.3574    0.1646    0.0000 CT        1 <0>         0.0000
      8 C8          0.3571   -0.2479    0.0000 CT        1 <0>         0.0000
      9 C9          1.0717    0.1646    0.0000 CT        1 <0>         0.0000
     10 C10         1.7862   -0.2479    0.0000 CT        1 <0>         0.0000
     11 C11         2.5007    0.1646    0.0000 CT        1 <0>         0.0000
     12 C12         3.2152   -0.2479    0.0000 CT        1 <0>         0.0000
     13 C13         3.9298    0.1646    0.0000 CT        1 <0>         0.0000
     14 C14         4.6442   -0.2479    0.0000 CT        1 <0>         0.0000
     15 O1         -5.3591   -0.2479    0.0000 O         1 <0>         0.0000
     16 O2         -3.2154    0.9897    0.0000 OH        1 <0>         0.0000
     17 O3         -4.6445    0.9897    0.0000 OH        1 <0>         0.0000
     18 H1         -3.2154   -0.4193    0.0000 H1        1 <0>         0.0000
     19 H2         -3.9300   -0.2479    0.0000 HC        1 <0>         0.0000
     20 H3         -3.9300   -0.2479    0.0000 HC        1 <0>         0.0000
     21 H4         -2.5010   -0.2479    0.0000 HC        1 <0>         0.0000
     22 H5         -2.5010   -0.2479    0.0000 HC        1 <0>         0.0000
     23 H6         -1.7864    0.1646    0.0000 HC        1 <0>         0.0000
     24 H7         -1.7864    0.1646    0.0000 HC        1 <0>         0.0000
     25 H8         -1.0719   -0.2479    0.0000 HC        1 <0>         0.0000
     26 H9         -1.0719   -0.2479    0.0000 HC        1 <0>         0.0000
     27 H10        -0.3574    0.1646    0.0000 HC        1 <0>         0.0000
     28 H11        -0.3574    0.1646    0.0000 HC        1 <0>         0.0000
     29 H12         0.3571   -0.2479    0.0000 HC        1 <0>         0.0000
     30 H13         0.3571   -0.2479    0.0000 HC        1 <0>         0.0000
     31 H14         1.0717    0.1646    0.0000 HC        1 <0>         0.0000
     32 H15         1.0717    0.1646    0.0000 HC        1 <0>         0.0000
     33 H16         1.7862   -0.2479    0.0000 HC        1 <0>         0.0000
     34 H17         1.7862   -0.2479    0.0000 HC        1 <0>         0.0000
     35 H18         2.5007    0.1646    0.0000 HC        1 <0>         0.0000
     36 H19         2.5007    0.1646    0.0000 HC        1 <0>         0.0000
     37 H20         3.2152   -0.2479    0.0000 HC        1 <0>         0.0000
     38 H21         3.2152   -0.2479    0.0000 HC        1 <0>         0.0000
     39 H22         3.9298    0.1646    0.0000 HC        1 <0>         0.0000
     40 H23         3.9298    0.1646    0.0000 HC        1 <0>         0.0000
     41 H24         4.6442   -0.2479    0.0000 HC        1 <0>         0.0000
     42 H25         4.6442   -0.2479    0.0000 HC        1 <0>         0.0000
     43 H26         4.6442   -0.2479    0.0000 HC        1 <0>         0.0000
     44 H27        -3.2154    0.9897    0.0000 HO        1 <0>         0.0000
     45 H28        -4.6445    0.9897    0.0000 HO        1 <0>         0.0000
@<TRIPOS>BOND
     1    1    2 1
     2    1   15 2
     3    1   17 1
     4    2    3 1
     5    3    4 1
     6    3   16 1
     7    3   18 1
     8    4    5 1
     9    5    6 1
    10    6    7 1
    11    7    8 1
    12    8    9 1
    13    9   10 1
    14   10   11 1
    15   11   12 1
    16   12   13 1
    17   13   14 1
    18    2   19 1
    19    2   20 1
    20    4   21 1
    21    4   22 1
    22    5   23 1
    23    5   24 1
    24    6   25 1
    25    6   26 1
    26    7   27 1
    27    7   28 1
    28    8   29 1
    29    8   30 1
    30    9   31 1
    31    9   32 1
    32   10   33 1
    33   10   34 1
    34   11   35 1
    35   11   36 1
    36   12   37 1
    37   12   38 1
    38   13   39 1
    39   13   40 1
    40   14   41 1
    41   14   42 1
    42   14   43 1
    43   16   44 1
    44   17   45 1
@<TRIPOS>MOLECULE
*****
   17    16     0     0     0
SMALL
NO_CHARGES

@<TRIPOS>ATOM
      1 C1          2.8875   -0.7145    0.0000 CT        1 <0>         0.0000
      2 C2          2.0625   -0.7145    0.0000 CT        1 <0>         0.0000
      3 C3          2.0625    0.1105    0.0000 CT        1 <0>         0.0000
      4 C4          2.0625   -1.5395    0.0000 CT        1 <0>         0.0000
      5 O1          1.2375   -0.7145    0.0000 OS        1 <0>         0.0000
      6 C5          0.8250    0.0000    0.0000 C         1 <0>         0.0000
      7 O2          0.0000    0.0000    0.0000 O         1 <0>         0.0000
      8 H1          2.8875   -0.7145    0.0000 HC        1 <0>         0.0000
      9 H2          2.8875   -0.7145    0.0000 HC        1 <0>         0.0000
     10 H3          2.8875   -0.7145    0.0000 HC        1 <0>         0.0000
     11 H4          2.0625    0.1105    0.0000 HC        1 <0>         0.0000
     12 H5          2.0625    0.1105    0.0000 HC        1 <0>         0.0000
     13 H6          2.0625    0.1105    0.0000 HC        1 <0>         0.0000
     14 H7          2.0625   -1.5395    0.0000 HC        1 <0>         0.0000
     15 H8          2.0625   -1.5395    0.0000 HC        1 <0>         0.0000
     16 H9          2.0625   -1.5395    0.0000 HC        1 <0>         0.0000
     17 H10         0.8250    0.0000    0.0000 H5        1 <0>         0.0000
@<TRIPOS>BOND
     1    1    2 1
     2    2    3 1
     3    2    4 1
     4    2    5 1
     5    5    6 1
     6    6    7 2
     7    1    8 1
     8    1    9 1
     9    1   10 1
    10    3   11 1
    11    3   12 1
    12    3   13 1
    13    4   14 1
    14    4   15 1
    15    4   16 1
    16    6   17 1
@<TRIPOS>MOLECULE
*****
   45    46     0     0     0
SMALL
NO_CHARGES

@<TRIPOS>ATOM
      1 O1          1.8370   -0.6114    0.0000 OH        1 <0>         0.0000
      2 C1          1.0300   -0.4399    0.0000 CT        1 <0>         0.0000
      3 C2          0.7751    0.3448    0.0000 CT        1 <0>         0.0000
      4 O2         -0.0319    0.5163    0.0000 OS        1 <0>         0.0000
      5 C3         -0.2868    1.3009    0.0000 CT        1 <0>         0.0000
      6 O3         -1.0938    1.4724    0.0000 OS        1 <0>         0.0000
      7 C4         -1.6458    0.8593    0.0000 CT        1 <0>         0.0000
      8 C5         -2.1978    1.4724    0.0000 CT        1 <0>         0.0000
      9 O4         -3.0048    1.3009    0.0000 OH        1 <0>         0.0000
     10 O5         -0.9784    0.3744    0.0000 OS        1 <0>         0.0000
     11 C6         -1.2333   -0.4102    0.0000 CT        1 <0>         0.0000
     12 C7         -0.7484   -1.0776    0.0000 CT        1 <0>         0.0000
     13 O6          0.0721   -0.9914    0.0000 OH        1 <0>         0.0000
     14 C8         -2.0583   -0.4102    0.0000 CT        1 <0>         0.0000
     15 O7         -2.5432   -1.0776    0.0000 OH        1 <0>         0.0000
     16 C9         -2.3132    0.3744    0.0000 CT        1 <0>         0.0000
     17 O8         -3.0979    0.6294    0.0000 OH        1 <0>         0.0000
     18 C10         0.2652    1.9140    0.0000 CT        1 <0>         0.0000
     19 O9          0.0103    2.6986    0.0000 OH        1 <0>         0.0000
     20 C11         1.0722    1.7425    0.0000 CT        1 <0>         0.0000
     21 O10         1.6242    2.3556    0.0000 OH        1 <0>         0.0000
     22 C12         1.3271    0.9579    0.0000 CT        1 <0>         0.0000
     23 O11         2.1341    0.7863    0.0000 OH        1 <0>         0.0000
     24 H1          1.8370   -0.6114    0.0000 HO        1 <0>         0.0000
     25 H2          1.0300   -0.4399    0.0000 H1        1 <0>         0.0000
     26 H3          1.0300   -0.4399    0.0000 H1        1 <0>         0.0000
     27 H4          0.7751    0.3448    0.0000 H1        1 <0>         0.0000
     28 H5         -0.2868    1.3009    0.0000 H2        1 <0>         0.0000
     29 H6         -2.1978    1.4724    0.0000 H1        1 <0>         0.0000
     30 H7         -2.1978    1.4724    0.0000 H1        1 <0>         0.0000
     31 H8         -3.0048    1.3009    0.0000 HO        1 <0>         0.0000
     32 H9         -1.2333   -0.4102    0.0000 H1        1 <0>         0.0000
     33 H10        -0.7484   -1.0776    0.0000 H1        1 <0>         0.0000
     34 H11        -0.7484   -1.0776    0.0000 H1        1 <0>         0.0000
     35 H12         0.0721   -0.9914    0.0000 HO        1 <0>         0.0000
     36 H13        -2.0583   -0.4102    0.0000 H1        1 <0>         0.0000
     37 H14        -2.5432   -1.0776    0.0000 HO        1 <0>         0.0000
     38 H15        -2.3132    0.3744    0.0000 H1        1 <0>         0.0000
     39 H16        -3.0979    0.6294    0.0000 HO        1 <0>         0.0000
     40 H17         0.2652    1.9140    0.0000 H1        1 <0>         0.0000
     41 H18         0.0103    2.6986    0.0000 HO        1 <0>         0.0000
     42 H19         1.0722    1.7425    0.0000 H1        1 <0>         0.0000
     43 H20         1.6242    2.3556    0.0000 HO        1 <0>         0.0000
     44 H21         1.3271    0.9579    0.0000 H1        1 <0>         0.0000
     45 H22         2.1341    0.7863    0.0000 HO        1 <0>         0.0000
@<TRIPOS>BOND
     1    1    2 1
     2    2    3 1
     3    3    4 1
     4    4    5 1
     5    5    6 1
     6    6    7 1
     7    7    8 1
     8    8    9 1
     9    7   10 1
    10   10   11 1
    11   11   12 1
    12   12   13 1
    13   11   14 1
    14   14   15 1
    15   14   16 1
    16    7   16 1
    17   16   17 1
    18    5   18 1
    19   18   19 1
    20   18   20 1
    21   20   21 1
    22   20   22 1
    23    3   22 1
    24   22   23 1
    25    1   24 1
    26    2   25 1
    27    2   26 1
    28    3   27 1
    29    5   28 1
    30    8   29 1
    31    8   30 1
    32    9   31 1
    33   11   32 1
    34   12   33 1
    35   12   34 1
    36   13   35 1
    37   14   36 1
    38   15   37 1
    39   16   38 1
    40   17   39 1
    41   18   40 1
    42   19   41 1
    43   20   42 1
    44   21   43 1
    45   22   44 1
    46   23   45 1
@<TRIPOS>MOLECULE
*****
   13    12     0     0     0
SMALL
NO_CHARGES

@<TRIPOS>ATOM
      1 O1          2.4750   -1.4289    0.0000 OH        1 <0>         0.0000
      2 C1          2.0625   -0.7145    0.0000 CT        1 <0>         0.0000
      3 C2          1.2375   -0.7145    0.0000 CT        1 <0>         0.0000
      4 C3          0.8250    0.0000    0.0000 CT        1 <0>         0.0000
      5 O2          0.0000    0.0000    0.0000 OH        1 <0>         0.0000
      6 H1          2.4750   -1.4289    0.0000 HO        1 <0>         0.0000
      7 H2          2.0625   -0.7145    0.0000 H1        1 <0>         0.0000
      8 H3          2.0625   -0.7145    0.0000 H1        1 <0>         0.0000
      9 H4          1.2375   -0.7145    0.0000 HC        1 <0>         0.0000
     10 H5          1.2375   -0.7145    0.0000 HC        1 <0>         0.0000
     11 H6          0.8250    0.0000    0.0000 H1        1 <0>         0.0000
     12 H7          0.8250    0.0000    0.0000 H1        1 <0>         0.0000
     13 H8          0.0000    0.0000    0.0000 HO        1 <0>         0.0000
@<TRIPOS>BOND
     1    1    2 1
     2    2    3 1
     3    3    4 1
     4    4    5 1
     5    1    6 1
     6    2    7 1
     7    2    8 1
     8    3    9 1
     9    3   10 1
    10    4   11 1
    11    4   12 1
    12    5   13 1
@<TRIPOS>MOLECULE
*****
   14    13     0     0     0
SMALL
NO_CHARGES

@<TRIPOS>ATOM
      1 C1          0.8250    1.4289    0.0000 CT        1 <0>         0.0000
      2 C2          1.2375    0.7145    0.0000 CT        1 <0>         0.0000
      3 O1          2.0625    0.7145    0.0000 OH        1 <0>         0.0000
      4 C3          0.8250    0.0000    0.0000 C         1 <0>         0.0000
      5 C4          1.2375   -0.7145    0.0000 CT        1 <0>         0.0000
      6 O2          0.0000    0.0000    0.0000 O         1 <0>         0.0000
      7 H1          0.8250    1.4289    0.0000 HC        1 <0>         0.0000
      8 H2          0.8250    1.4289    0.0000 HC        1 <0>         0.0000
      9 H3          0.8250    1.4289    0.0000 HC        1 <0>         0.0000
     10 H4          1.2375    0.7145    0.0000 H1        1 <0>         0.0000
     11 H5          2.0625    0.7145    0.0000 HO        1 <0>         0.0000
     12 H6          1.2375   -0.7145    0.0000 HC        1 <0>         0.0000
     13 H7          1.2375   -0.7145    0.0000 HC        1 <0>         0.0000
     14 H8          1.2375   -0.7145    0.0000 HC        1 <0>         0.0000
@<TRIPOS>BOND
     1    1    2 1
     2    2    3 1
     3    2    4 1
     4    4    5 1
     5    4    6 2
     6    1    7 1
     7    1    8 1
     8    1    9 1
     9    2   10 1
    10    3   11 1
    11    5   12 1
    12    5   13 1
    13    5   14 1
@<TRIPOS>MOLECULE
PLO
   55    58     0     0     0
SMALL
NO_CHARGES

@<TRIPOS>ATOM
      1 C1          1.7642   -0.4159    0.0000 CT        1 <0>         0.0000
      2 C2          2.5763   -0.2707    0.0000 CT        1 <0>         0.0000
      3 C3          2.8566    0.5053    0.0000 CT        1 <0>         0.0000
      4 O1          3.6688    0.6505    0.0000 OH        1 <0>         0.0000
      5 C4          2.3248    1.1360    0.0000 CT        1 <0>         0.0000
      6 C5          1.5127    0.9908    0.0000 CM        1 <0>         0.0000
      7 C6          0.9809    1.6215    0.0000 CM        1 <0>         0.0000
      8 C7          0.1688    1.4763    0.0000 CT        1 <0>         0.0000
      9 C8         -0.1115    0.7003    0.0000 CT        1 <0>         0.0000
     10 C9          0.4203    0.0696    0.0000 CT        1 <0>         0.0000
     11 C10         1.2324    0.2148    0.0000 CT        1 <0>         0.0000
     12 C11         0.1400   -0.7063    0.0000 CT        1 <0>         0.0000
     13 C12        -0.6721   -0.8515    0.0000 CT        1 <0>         0.0000
     14 C13        -1.2040   -0.2208    0.0000 CT        1 <0>         0.0000
     15 C14        -0.9237    0.5551    0.0000 CT        1 <0>         0.0000
     16 C15        -1.5750    1.0615    0.0000 CT        1 <0>         0.0000
     17 C16        -2.2578    0.5985    0.0000 CT        1 <0>         0.0000
     18 C17        -2.0285   -0.1940    0.0000 CT        1 <0>         0.0000
     19 C18        -1.5638   -0.9632    0.0000 CT        1 <0>         0.0000
     20 C19         0.9521   -0.5611    0.0000 CT        1 <0>         0.0000
     21 C20        -2.5349   -0.8453    0.0000 C         1 <0>         0.0000
     22 C21        -2.2240   -1.6095    0.0000 CT        1 <0>         0.0000
     23 O2         -3.3521   -0.7325    0.0000 O         1 <0>         0.0000
     24 H1          3.2331    0.0589    0.0000 H1        1 <0>         0.0000
     25 H2         -0.4880    1.1467    0.0000 HC        1 <0>         0.0000
     26 H3          0.6213   -0.4786    0.0000 HC        1 <0>         0.0000
     27 H4         -0.7838    1.1220    0.0000 HC        1 <0>         0.0000
     28 H5         -1.7805   -0.7226    0.0000 HC        1 <0>         0.0000
     29 H6          1.7642   -0.4159    0.0000 HC        1 <0>         0.0000
     30 H7          1.7642   -0.4159    0.0000 HC        1 <0>         0.0000
     31 H8          2.5763   -0.2707    0.0000 HC        1 <0>         0.0000
     32 H9          2.5763   -0.2707    0.0000 HC        1 <0>         0.0000
     33 H10         3.6688    0.6505    0.0000 HO        1 <0>         0.0000
     34 H11         2.3248    1.1360    0.0000 HC        1 <0>         0.0000
     35 H12         2.3248    1.1360    0.0000 HC        1 <0>         0.0000
     36 H13         0.9809    1.6215    0.0000 HA        1 <0>         0.0000
     37 H14         0.1688    1.4763    0.0000 HC        1 <0>         0.0000
     38 H15         0.1688    1.4763    0.0000 HC        1 <0>         0.0000
     39 H16         0.1400   -0.7063    0.0000 HC        1 <0>         0.0000
     40 H17         0.1400   -0.7063    0.0000 HC        1 <0>         0.0000
     41 H18        -0.6721   -0.8515    0.0000 HC        1 <0>         0.0000
     42 H19        -0.6721   -0.8515    0.0000 HC        1 <0>         0.0000
     43 H20        -1.5750    1.0615    0.0000 HC        1 <0>         0.0000
     44 H21        -1.5750    1.0615    0.0000 HC        1 <0>         0.0000
     45 H22        -2.2578    0.5985    0.0000 HC        1 <0>         0.0000
     46 H23        -2.2578    0.5985    0.0000 HC        1 <0>         0.0000
     47 H24        -1.5638   -0.9632    0.0000 HC        1 <0>         0.0000
     48 H25        -1.5638   -0.9632    0.0000 HC        1 <0>         0.0000
     49 H26        -1.5638   -0.9632    0.0000 HC        1 <0>         0.0000
     50 H27         0.9521   -0.5611    0.0000 HC        1 <0>         0.0000
     51 H28         0.9521   -0.5611    0.0000 HC        1 <0>         0.0000
     52 H29         0.9521   -0.5611    0.0000 HC        1 <0>         0.0000
     53 H30        -2.2240   -1.6095    0.0000 HC        1 <0>         0.0000
     54 H31        -2.2240   -1.6095    0.0000 HC        1 <0>         0.0000
     55 H32        -2.2240   -1.6095    0.0000 HC        1 <0>         0.0000
@<TRIPOS>BOND
     1    1    2 1
     2    1   11 1
     3    2    3 1
     4    3    4 1
     5    3    5 1
     6    3   24 1
     7    5    6 1
     8    6    7 2
     9    6   11 1
    10    7    8 1
    11    8    9 1
    12    9   10 1
    13    9   15 1
    14    9   25 1
    15   10   11 1
    16   10   12 1
    17   10   26 1
    18   11   20 1
    19   12   13 1
    20   13   14 1
    21   14   15 1
    22   14   18 1
    23   14   19 1
    24   15   16 1
    25   15   27 1
    26   16   17 1
    27   17   18 1
    28   18   21 1
    29   18   28 1
    30   21   22 1
    31   21   23 2
    32    1   29 1
    33    1   30 1
    34    2   31 1
    35    2   32 1
    36    4   33 1
    37    5   34 1
    38    5   35 1
    39    7   36 1
    40    8   37 1
    41    8   38 1
    42   12   39 1
    43   12   40 1
    44   13   41 1
    45   13   42 1
    46   16   43 1
    47   16   44 1
    48   17   45 1
    49   17   46 1
    50   19   47 1
    51   19   48 1
    52   19   49 1
    53   20   50 1
    54   20   51 1
    55   20   52 1
    56   22   53 1
    57   22   54 1
    58   22   55 1
@<TRIPOS>MOLECULE
*****
   26    26     0     0     0
SMALL
NO_CHARGES

@<TRIPOS>ATOM
      1 O1          2.1434    1.2375    0.0000 OH        1 <0>         0.0000
      2 C1          1.4289    0.8250    0.0000 CT        1 <0>         0.0000
      3 C2          1.4289    0.0000    0.0000 CT        1 <0>         0.0000
      4 C3          0.7145   -0.4125    0.0000 CM        1 <0>         0.0000
      5 C4          0.0000    0.0000    0.0000 CM        1 <0>         0.0000
      6 C5          0.0000    0.8250    0.0000 CM        1 <0>         0.0000
      7 C6          0.7145    1.2375    0.0000 CM        1 <0>         0.0000
      8 O2          0.7145    2.0625    0.0000 OS        1 <0>         0.0000
      9 C7          0.0000    2.4750    0.0000 CM        1 <0>         0.0000
     10 C8         -0.7145    2.0625    0.0000 CM        1 <0>         0.0000
     11 C9          0.0000    3.3000    0.0000 C         1 <0>         0.0000
     12 O3         -0.7145    3.7125    0.0000 OH        1 <0>         0.0000
     13 O4          0.7145    3.7125    0.0000 O         1 <0>         0.0000
     14 C10         2.1434   -0.4125    0.0000 C         1 <0>         0.0000
     15 O5          2.8579    0.0000    0.0000 OH        1 <0>         0.0000
     16 O6          2.1434   -1.2375    0.0000 O         1 <0>         0.0000
     17 H1          2.1434    1.2375    0.0000 HO        1 <0>         0.0000
     18 H2          1.4289    0.8250    0.0000 H1        1 <0>         0.0000
     19 H3          1.4289    0.0000    0.0000 HC        1 <0>         0.0000
     20 H4          0.7145   -0.4125    0.0000 HA        1 <0>         0.0000
     21 H5          0.0000    0.0000    0.0000 HA        1 <0>         0.0000
     22 H6          0.0000    0.8250    0.0000 HA        1 <0>         0.0000
     23 H7         -0.7145    2.0625    0.0000 HA        1 <0>         0.0000
     24 H8         -0.7145    2.0625    0.0000 HA        1 <0>         0.0000
     25 H9         -0.7145    3.7125    0.0000 HO        1 <0>         0.0000
     26 H10         2.8579    0.0000    0.0000 HO        1 <0>         0.0000
@<TRIPOS>BOND
     1    1    2 1
     2    2    3 1
     3    3    4 1
     4    4    5 2
     5    5    6 1
     6    6    7 2
     7    2    7 1
     8    7    8 1
     9    8    9 1
    10    9   10 2
    11    9   11 1
    12   11   12 1
    13   11   13 2
    14    3   14 1
    15   14   15 1
    16   14   16 2
    17    1   17 1
    18    2   18 1
    19    3   19 1
    20    4   20 1
    21    5   21 1
    22    6   22 1
    23   10   23 1
    24   10   24 1
    25   12   25 1
    26   15   26 1
@<TRIPOS>MOLECULE
*****
   19    19     0     0     0
SMALL
NO_CHARGES

@<TRIPOS>ATOM
      1 C1          1.4289   -1.6500    0.0000 CT        1 <0>         0.0000
      2 O1          0.7145   -1.2375    0.0000 OS        1 <0>         0.0000
      3 C2          0.7145   -0.4125    0.0000 CA        1 <0>         0.0000
      4 C3          0.0000    0.0000    0.0000 CA        1 <0>         0.0000
      5 C4          0.0000    0.8250    0.0000 CA        1 <0>         0.0000
      6 C5          0.7145    1.2375    0.0000 CA        1 <0>         0.0000
      7 C6          1.4289    0.8250    0.0000 CA        1 <0>         0.0000
      8 C7          1.4289    0.0000    0.0000 CA        1 <0>         0.0000
      9 C8          0.7145    2.0625    0.0000 C         1 <0>         0.0000
     10 O2          0.0000    2.4750    0.0000 OH        1 <0>         0.0000
     11 O3          1.4289    2.4750    0.0000 O         1 <0>         0.0000
     12 H1          1.4289   -1.6500    0.0000 H1        1 <0>         0.0000
     13 H2          1.4289   -1.6500    0.0000 H1        1 <0>         0.0000
     14 H3          1.4289   -1.6500    0.0000 H1        1 <0>         0.0000
     15 H4          0.0000    0.0000    0.0000 HA        1 <0>         0.0000
     16 H5          0.0000    0.8250    0.0000 HA        1 <0>         0.0000
     17 H6          1.4289    0.8250    0.0000 HA        1 <0>         0.0000
     18 H7          1.4289    0.0000    0.0000 HA        1 <0>         0.0000
     19 H8          0.0000    2.4750    0.0000 HO        1 <0>         0.0000
@<TRIPOS>BOND
     1    1    2 1
     2    2    3 1
     3    3    4 ar
     4    4    5 ar
     5    5    6 ar
     6    6    7 ar
     7    7    8 ar
     8    3    8 ar
     9    6    9 1
    10    9   10 1
    11    9   11 2
    12    1   12 1
    13    1   13 1
    14    1   14 1
    15    4   15 1
    16    5   16 1
    17    7   17 1
    18    8   18 1
    19   10   19 1
@<TRIPOS>MOLECULE
*****
   22    22     0     0     0
SMALL
NO_CHARGES

@<TRIPOS>ATOM
      1 O1         -0.7145   -0.4125    0.0000 OH        1 <0>         0.0000
      2 C1          0.0000    0.0000    0.0000 CT        1 <0>         0.0000
      3 C2          0.0000    0.8250    0.0000 CT        1 <0>         0.0000
      4 C3          0.7145    1.2375    0.0000 CT        1 <0>         0.0000
      5 O2          0.1842    1.8695    0.0000 OH        1 <0>         0.0000
      6 C4          1.4289    0.8250    0.0000 CM        1 <0>         0.0000
      7 C5          1.4289    0.0000    0.0000 CM        1 <0>         0.0000
      8 C6          0.7145   -0.4125    0.0000 CT        1 <0>         0.0000
      9 O3          0.7145   -1.2375    0.0000 OH        1 <0>         0.0000
     10 C7          1.2448    1.8695    0.0000 C         1 <0>         0.0000
     11 O4          0.9626    2.6447    0.0000 OH        1 <0>         0.0000
     12 O5          2.0572    1.7262    0.0000 O         1 <0>         0.0000
     13 H1         -0.7145   -0.4125    0.0000 HO        1 <0>         0.0000
     14 H2          0.0000    0.0000    0.0000 H1        1 <0>         0.0000
     15 H3          0.0000    0.8250    0.0000 HC        1 <0>         0.0000
     16 H4          0.0000    0.8250    0.0000 HC        1 <0>         0.0000
     17 H5          0.1842    1.8695    0.0000 HO        1 <0>         0.0000
     18 H6          1.4289    0.8250    0.0000 HA        1 <0>         0.0000
     19 H7          1.4289    0.0000    0.0000 HA        1 <0>         0.0000
     20 H8          0.7145   -0.4125    0.0000 H1        1 <0>         0.0000
     21 H9          0.7145   -1.2375    0.0000 HO        1 <0>         0.0000
     22 H10         0.9626    2.6447    0.0000 HO        1 <0>         0.0000
@<TRIPOS>BOND
     1    1    2 1
     2    2    3 1
     3    3    4 1
     4    4    5 1
     5    4    6 1
     6    6    7 2
     7    7    8 1
     8    2    8 1
     9    8    9 1
    10    4   10 1
    11   10   11 1
    12   10   12 2
    13    1   13 1
    14    2   14 1
    15    3   15 1
    16    3   16 1
    17    5   17 1
    18    6   18 1
    19    7   19 1
    20    8   20 1
    21    9   21 1
    22   11   22 1
@<TRIPOS>MOLECULE
*****
   23    23     0     0     0
SMALL
NO_CHARGES

@<TRIPOS>ATOM
      1 O1         -0.7145    3.7125    0.0000 OH        1 <0>         0.0000
      2 C1          0.0000    3.3000    0.0000 CT        1 <0>         0.0000
      3 C2          0.0000    2.4750    0.0000 CT        1 <0>         0.0000
      4 O2         -0.7145    2.0625    0.0000 OH        1 <0>         0.0000
      5 C3          0.7145    2.0625    0.0000 CT        1 <0>         0.0000
      6 C4          0.7145    1.2375    0.0000 CA        1 <0>         0.0000
      7 C5          1.4289    0.8250    0.0000 CA        1 <0>         0.0000
      8 C6          1.4289    0.0000    0.0000 CA        1 <0>         0.0000
      9 C7          0.7145   -0.4125    0.0000 CA        1 <0>         0.0000
     10 C8          0.0000    0.0000    0.0000 CA        1 <0>         0.0000
     11 C9          0.0000    0.8250    0.0000 CA        1 <0>         0.0000
     12 H1         -0.7145    3.7125    0.0000 HO        1 <0>         0.0000
     13 H2          0.0000    3.3000    0.0000 H1        1 <0>         0.0000
     14 H3          0.0000    3.3000    0.0000 H1        1 <0>         0.0000
     15 H4          0.0000    2.4750    0.0000 H1        1 <0>         0.0000
     16 H5         -0.7145    2.0625    0.0000 HO        1 <0>         0.0000
     17 H6          0.7145    2.0625    0.0000 HC        1 <0>         0.0000
     18 H7          0.7145    2.0625    0.0000 HC        1 <0>         0.0000
     19 H8          1.4289    0.8250    0.0000 HA        1 <0>         0.0000
     20 H9          1.4289    0.0000    0.0000 HA        1 <0>         0.0000
     21 H10         0.7145   -0.4125    0.0000 HA        1 <0>         0.0000
     22 H11         0.0000    0.0000    0.0000 HA        1 <0>         0.0000
     23 H12         0.0000    0.8250    0.0000 HA        1 <0>         0.0000
@<TRIPOS>BOND
     1    1    2 1
     2    2    3 1
     3    3    4 1
     4    3    5 1
     5    5    6 1
     6    6    7 ar
     7    7    8 ar
     8    8    9 ar
     9    9   10 ar
    10   10   11 ar
    11    6   11 ar
    12    1   12 1
    13    2   13 1
    14    2   14 1
    15    3   15 1
    16    4   16 1
    17    5   17 1
    18    5   18 1
    19    7   19 1
    20    8   20 1
    21    9   21 1
    22   10   22 1
    23   11   23 1
@<TRIPOS>MOLECULE
*****
   13    12     0     0     0
SMALL
NO_CHARGES

@<TRIPOS>ATOM
      1 C1          2.4750   -1.4289    0.0000 CT        1 <0>         0.0000
      2 O1          2.0625   -0.7145    0.0000 OS        1 <0>         0.0000
      3 C2          1.2375   -0.7145    0.0000 CT        1 <0>         0.0000
      4 C3          0.8250    0.0000    0.0000 CT        1 <0>         0.0000
      5 O2          0.0000    0.0000    0.0000 OH        1 <0>         0.0000
      6 H1          2.4750   -1.4289    0.0000 H1        1 <0>         0.0000
      7 H2          2.4750   -1.4289    0.0000 H1        1 <0>         0.0000
      8 H3          2.4750   -1.4289    0.0000 H1        1 <0>         0.0000
      9 H4          1.2375   -0.7145    0.0000 H1        1 <0>         0.0000
     10 H5          1.2375   -0.7145    0.0000 H1        1 <0>         0.0000
     11 H6          0.8250    0.0000    0.0000 H1        1 <0>         0.0000
     12 H7          0.8250    0.0000    0.0000 H1        1 <0>         0.0000
     13 H8          0.0000    0.0000    0.0000 HO        1 <0>         0.0000
@<TRIPOS>BOND
     1    1    2 1
     2    2    3 1
     3    3    4 1
     4    4    5 1
     5    1    6 1
     6    1    7 1
     7    1    8 1
     8    3    9 1
     9    3   10 1
    10    4   11 1
    11    4   12 1
    12    5   13 1
@<TRIPOS>MOLECULE
*****
   24    23     0     0     0
SMALL
NO_CHARGES

@<TRIPOS>ATOM
      1 O1          1.0461    1.4289    0.0000 OH        1 <0>         0.0000
      2 C1          1.7605    1.8414    0.0000 CT        1 <0>         0.0000
      3 C2          2.4750    1.4289    0.0000 CT        1 <0>         0.0000
      4 O2          2.4750    0.6039    0.0000 OH        1 <0>         0.0000
      5 C3          3.1895    1.8414    0.0000 CT        1 <0>         0.0000
      6 O3          3.1895    2.6664    0.0000 OH        1 <0>         0.0000
      7 C4          3.9039    1.4289    0.0000 CT        1 <0>         0.0000
      8 C5          4.6184    1.8414    0.0000 CT        1 <0>         0.0000
      9 O4          4.6184    2.6664    0.0000 OH        1 <0>         0.0000
     10 C6          5.3329    1.4289    0.0000 C         1 <0>         0.0000
     11 O5          6.0474    1.8414    0.0000 OH        1 <0>         0.0000
     12 O6          5.3329    0.6039    0.0000 O         1 <0>         0.0000
     13 H1          1.0461    1.4289    0.0000 HO        1 <0>         0.0000
     14 H2          1.7605    1.8414    0.0000 H1        1 <0>         0.0000
     15 H3          1.7605    1.8414    0.0000 H1        1 <0>         0.0000
     16 H4          2.4750    1.4289    0.0000 H1        1 <0>         0.0000
     17 H5          2.4750    0.6039    0.0000 HO        1 <0>         0.0000
     18 H6          3.1895    1.8414    0.0000 H1        1 <0>         0.0000
     19 H7          3.1895    2.6664    0.0000 HO        1 <0>         0.0000
     20 H8          3.9039    1.4289    0.0000 HC        1 <0>         0.0000
     21 H9          3.9039    1.4289    0.0000 HC        1 <0>         0.0000
     22 H10         4.6184    1.8414    0.0000 H1        1 <0>         0.0000
     23 H11         4.6184    2.6664    0.0000 HO        1 <0>         0.0000
     24 H12         6.0474    1.8414    0.0000 HO        1 <0>         0.0000
@<TRIPOS>BOND
     1    1    2 1
     2    2    3 1
     3    3    4 1
     4    3    5 1
     5    5    6 1
     6    5    7 1
     7    7    8 1
     8    8    9 1
     9    8   10 1
    10   10   11 1
    11   10   12 2
    12    1   13 1
    13    2   14 1
    14    2   15 1
    15    3   16 1
    16    4   17 1
    17    5   18 1
    18    6   19 1
    19    7   20 1
    20    7   21 1
    21    8   22 1
    22    9   23 1
    23   11   24 1
@<TRIPOS>MOLECULE
CAH
   28    29     0     0     0
SMALL
NO_CHARGES

@<TRIPOS>ATOM
      1 C1         -0.3250   -0.6294    0.0000 CT        1 <0>         0.0000
      2 C2         -1.1005   -1.0197    0.0000 C         1 <0>         0.0000
      3 O1         -1.6950   -1.5916    0.0000 O         1 <0>         0.0000
      4 C3         -0.7352   -0.3592    0.0000 CT        1 <0>         0.0000
      5 C4         -0.0949    0.0910    0.0000 CT        1 <0>         0.0000
      6 C5          0.7005   -0.3742    0.0000 CT        1 <0>         0.0000
      7 O2          1.4886   -0.1303    0.0000 OH        1 <0>         0.0000
      8 C6          0.4055   -0.9996    0.0000 CT        1 <0>         0.0000
      9 C7         -0.2549    0.9063    0.0000 CT        1 <0>         0.0000
     10 C8         -0.8346    1.4932    0.0000 CT        1 <0>         0.0000
     11 C9          0.2319    1.5724    0.0000 CT        1 <0>         0.0000
     12 C10        -0.3262   -1.4544    0.0000 CT        1 <0>         0.0000
     13 H1          0.0818    0.6474    0.0000 HC        1 <0>         0.0000
     14 H2          0.7672    0.2058    0.0000 H1        1 <0>         0.0000
     15 H3         -0.7352   -0.3592    0.0000 HC        1 <0>         0.0000
     16 H4         -0.7352   -0.3592    0.0000 HC        1 <0>         0.0000
     17 H5          1.4886   -0.1303    0.0000 HO        1 <0>         0.0000
     18 H6          0.4055   -0.9996    0.0000 HC        1 <0>         0.0000
     19 H7          0.4055   -0.9996    0.0000 HC        1 <0>         0.0000
     20 H8         -0.8346    1.4932    0.0000 HC        1 <0>         0.0000
     21 H9         -0.8346    1.4932    0.0000 HC        1 <0>         0.0000
     22 H10        -0.8346    1.4932    0.0000 HC        1 <0>         0.0000
     23 H11         0.2319    1.5724    0.0000 HC        1 <0>         0.0000
     24 H12         0.2319    1.5724    0.0000 HC        1 <0>         0.0000
     25 H13         0.2319    1.5724    0.0000 HC        1 <0>         0.0000
     26 H14        -0.3262   -1.4544    0.0000 HC        1 <0>         0.0000
     27 H15        -0.3262   -1.4544    0.0000 HC        1 <0>         0.0000
     28 H16        -0.3262   -1.4544    0.0000 HC        1 <0>         0.0000
@<TRIPOS>BOND
     1    1    2 1
     2    1    8 1
     3    1    9 1
     4    1   12 1
     5    2    3 2
     6    2    4 1
     7    4    5 1
     8    5    6 1
     9    5    9 1
    10    5   13 1
    11    6    7 1
    12    6    8 1
    13    6   14 1
    14    9   10 1
    15    9   11 1
    16    4   15 1
    17    4   16 1
    18    7   17 1
    19    8   18 1
    20    8   19 1
    21   10   20 1
    22   10   21 1
    23   10   22 1
    24   11   23 1
    25   11   24 1
    26   11   25 1
    27   12   26 1
    28   12   27 1
    29   12   28 1
@<TRIPOS>MOLECULE
2,4-Dihydroxybenzoic acid
   17    17     0     0     0
SMALL
NO_CHARGES

@<TRIPOS>ATOM
      1 O1          0.0000    2.4750    0.0000 OH        1 <0>         0.0000
      2 C1          0.7145    2.0625    0.0000 C         1 <0>         0.0000
      3 O2          1.4289    2.4750    0.0000 O         1 <0>         0.0000
      4 C2          0.7145    1.2375    0.0000 CA        1 <0>         0.0000
      5 C3          1.4289    0.8250    0.0000 CA        1 <0>         0.0000
      6 O3          2.1434    1.2375    0.0000 OH        1 <0>         0.0000
      7 C4          1.4289    0.0000    0.0000 CA        1 <0>         0.0000
      8 C5          0.7145   -0.4125    0.0000 CA        1 <0>         0.0000
      9 O4          0.7145   -1.2375    0.0000 OH        1 <0>         0.0000
     10 C6          0.0000    0.0000    0.0000 CA        1 <0>         0.0000
     11 C7          0.0000    0.8250    0.0000 CA        1 <0>         0.0000
     12 H1          0.0000    2.4750    0.0000 HO        1 <0>         0.0000
     13 H2          2.1434    1.2375    0.0000 HO        1 <0>         0.0000
     14 H3          1.4289    0.0000    0.0000 HA        1 <0>         0.0000
     15 H4          0.7145   -1.2375    0.0000 HO        1 <0>         0.0000
     16 H5          0.0000    0.0000    0.0000 HA        1 <0>         0.0000
     17 H6          0.0000    0.8250    0.0000 HA        1 <0>         0.0000
@<TRIPOS>BOND
     1    1    2 1
     2    2    3 2
     3    2    4 1
     4    4    5 ar
     5    5    6 1
     6    5    7 ar
     7    7    8 ar
     8    8    9 1
     9    8   10 ar
    10   10   11 ar
    11    4   11 ar
    12    1   12 1
    13    6   13 1
    14    7   14 1
    15    9   15 1
    16   10   16 1
    17   11   17 1
@<TRIPOS>MOLECULE
AE2
   51    54     0     0     0
SMALL
NO_CHARGES

@<TRIPOS>ATOM
      1 C1          1.3350   -0.7296    0.0000 CT        1 <0>         0.0000
      2 C2          2.1471   -0.5844    0.0000 CT        1 <0>         0.0000
      3 C3          2.4274    0.1916    0.0000 CT        1 <0>         0.0000
      4 O1          3.2395    0.3368    0.0000 OH        1 <0>         0.0000
      5 C4          1.8956    0.8223    0.0000 CT        1 <0>         0.0000
      6 C5          1.0834    0.6771    0.0000 CT        1 <0>         0.0000
      7 C6          0.5516    1.3078    0.0000 CT        1 <0>         0.0000
      8 C7         -0.2605    1.1626    0.0000 CT        1 <0>         0.0000
      9 C8         -0.5408    0.3866    0.0000 CT        1 <0>         0.0000
     10 C9         -0.0090   -0.2441    0.0000 CT        1 <0>         0.0000
     11 C10         0.8031   -0.0989    0.0000 CT        1 <0>         0.0000
     12 C11        -0.2893   -1.0200    0.0000 CT        1 <0>         0.0000
     13 C12        -1.1014   -1.1652    0.0000 CT        1 <0>         0.0000
     14 C13        -1.6332   -0.5345    0.0000 CT        1 <0>         0.0000
     15 C14        -1.3529    0.2414    0.0000 CT        1 <0>         0.0000
     16 C15        -2.0042    0.7478    0.0000 CT        1 <0>         0.0000
     17 C16        -2.6871    0.2848    0.0000 CT        1 <0>         0.0000
     18 C17        -2.4578   -0.5077    0.0000 C         1 <0>         0.0000
     19 O2         -2.9641   -1.1590    0.0000 O         1 <0>         0.0000
     20 C18        -1.9931   -1.2769    0.0000 CT        1 <0>         0.0000
     21 C19         0.5228   -0.8748    0.0000 CT        1 <0>         0.0000
     22 H1          2.8038   -0.2548    0.0000 H1        1 <0>         0.0000
     23 H2          1.2818    1.2263    0.0000 HC        1 <0>         0.0000
     24 H3         -0.9172    0.8330    0.0000 HC        1 <0>         0.0000
     25 H4          0.1921   -0.7923    0.0000 HC        1 <0>         0.0000
     26 H5         -1.2130    0.8083    0.0000 HC        1 <0>         0.0000
     27 H6          1.3350   -0.7296    0.0000 HC        1 <0>         0.0000
     28 H7          1.3350   -0.7296    0.0000 HC        1 <0>         0.0000
     29 H8          2.1471   -0.5844    0.0000 HC        1 <0>         0.0000
     30 H9          2.1471   -0.5844    0.0000 HC        1 <0>         0.0000
     31 H10         3.2395    0.3368    0.0000 HO        1 <0>         0.0000
     32 H11         1.8956    0.8223    0.0000 HC        1 <0>         0.0000
     33 H12         1.8956    0.8223    0.0000 HC        1 <0>         0.0000
     34 H13         0.5516    1.3078    0.0000 HC        1 <0>         0.0000
     35 H14         0.5516    1.3078    0.0000 HC        1 <0>         0.0000
     36 H15        -0.2605    1.1626    0.0000 HC        1 <0>         0.0000
     37 H16        -0.2605    1.1626    0.0000 HC        1 <0>         0.0000
     38 H17        -0.2893   -1.0200    0.0000 HC        1 <0>         0.0000
     39 H18        -0.2893   -1.0200    0.0000 HC        1 <0>         0.0000
     40 H19        -1.1014   -1.1652    0.0000 HC        1 <0>         0.0000
     41 H20        -1.1014   -1.1652    0.0000 HC        1 <0>         0.0000
     42 H21        -2.0042    0.7478    0.0000 HC        1 <0>         0.0000
     43 H22        -2.0042    0.7478    0.0000 HC        1 <0>         0.0000
     44 H23        -2.6871    0.2848    0.0000 HC        1 <0>         0.0000
     45 H24        -2.6871    0.2848    0.0000 HC        1 <0>         0.0000
     46 H25        -1.9931   -1.2769    0.0000 HC        1 <0>         0.0000
     47 H26        -1.9931   -1.2769    0.0000 HC        1 <0>         0.0000
     48 H27        -1.9931   -1.2769    0.0000 HC        1 <0>         0.0000
     49 H28         0.5228   -0.8748    0.0000 HC        1 <0>         0.0000
     50 H29         0.5228   -0.8748    0.0000 HC        1 <0>         0.0000
     51 H30         0.5228   -0.8748    0.0000 HC        1 <0>         0.0000
@<TRIPOS>BOND
     1    1    2 1
     2    1   11 1
     3    2    3 1
     4    3    4 1
     5    3    5 1
     6    3   22 1
     7    5    6 1
     8    6    7 1
     9    6   11 1
    10    6   23 1
    11    7    8 1
    12    8    9 1
    13    9   10 1
    14    9   15 1
    15    9   24 1
    16   10   11 1
    17   10   12 1
    18   10   25 1
    19   11   21 1
    20   12   13 1
    21   13   14 1
    22   14   15 1
    23   14   18 1
    24   14   20 1
    25   15   16 1
    26   15   26 1
    27   16   17 1
    28   17   18 1
    29   18   19 2
    30    1   27 1
    31    1   28 1
    32    2   29 1
    33    2   30 1
    34    4   31 1
    35    5   32 1
    36    5   33 1
    37    7   34 1
    38    7   35 1
    39    8   36 1
    40    8   37 1
    41   12   38 1
    42   12   39 1
    43   13   40 1
    44   13   41 1
    45   16   42 1
    46   16   43 1
    47   17   44 1
    48   17   45 1
    49   20   46 1
    50   20   47 1
    51   20   48 1
    52   21   49 1
    53   21   50 1
    54   21   51 1
@<TRIPOS>MOLECULE
*****
   81    83     0     0     0
SMALL
NO_CHARGES

@<TRIPOS>ATOM
      1 C1          7.3181    2.7479    0.0000 CT        1 <0>         0.0000
      2 O1          6.6612    3.2470    0.0000 OS        1 <0>         0.0000
      3 C2          5.9005    2.9276    0.0000 CT        1 <0>         0.0000
      4 C3          5.7968    2.1091    0.0000 CT        1 <0>         0.0000
      5 C4          6.4538    1.6101    0.0000 CT        1 <0>         0.0000
      6 C5          6.3500    0.7916    0.0000 CT        1 <0>         0.0000
      7 C6          5.5894    0.4722    0.0000 CT        1 <0>         0.0000
      8 C7          5.4856   -0.3462    0.0000 CT        1 <0>         0.0000
      9 O2          4.7250   -0.6656    0.0000 OS        1 <0>         0.0000
     10 C8          4.0680   -0.1666    0.0000 C         1 <0>         0.0000
     11 O3          3.3074   -0.4860    0.0000 O         1 <0>         0.0000
     12 C9          4.1718    0.6519    0.0000 CT        1 <0>         0.0000
     13 C10         4.9324    0.9713    0.0000 CT        1 <0>         0.0000
     14 C11         3.5148    1.1509    0.0000 CT        1 <0>         0.0000
     15 O4          3.4111    0.3325    0.0000 OH        1 <0>         0.0000
     16 O5          3.6185    1.9694    0.0000 OS        1 <0>         0.0000
     17 C12         2.9616    2.4685    0.0000 CT        1 <0>         0.0000
     18 C13         3.0653    3.2869    0.0000 CT        1 <0>         0.0000
     19 C14         2.4084    3.7860    0.0000 CT        1 <0>         0.0000
     20 C15         3.8260    3.6063    0.0000 CM        1 <0>         0.0000
     21 C16         4.4829    3.1072    0.0000 CM        1 <0>         0.0000
     22 C17         5.2436    3.4266    0.0000 CT        1 <0>         0.0000
     23 O6          5.3473    4.2451    0.0000 OS        1 <0>         0.0000
     24 C18         4.6904    4.7442    0.0000 CT        1 <0>         0.0000
     25 C19         2.2009    2.1491    0.0000 CT        1 <0>         0.0000
     26 C20         1.5440    2.6481    0.0000 CT        1 <0>         0.0000
     27 C21         2.0972    1.3306    0.0000 CT        1 <0>         0.0000
     28 O7          1.3366    1.0112    0.0000 OH        1 <0>         0.0000
     29 C22         2.7542    0.8315    0.0000 CT        1 <0>         0.0000
     30 O8          2.6504    0.0131    0.0000 OS        1 <0>         0.0000
     31 C23         1.8898   -0.3063    0.0000 CT        1 <0>         0.0000
     32 C24         6.1426   -0.8453    0.0000 CA        1 <0>         0.0000
     33 C25         6.9032   -0.5259    0.0000 CA        1 <0>         0.0000
     34 C26         7.5602   -1.0249    0.0000 CA        1 <0>         0.0000
     35 C27         7.4564   -1.8434    0.0000 CA        1 <0>         0.0000
     36 C28         6.6958   -2.1628    0.0000 CA        1 <0>         0.0000
     37 C29         6.0388   -1.6637    0.0000 CA        1 <0>         0.0000
     38 H1          7.3181    2.7479    0.0000 H1        1 <0>         0.0000
     39 H2          7.3181    2.7479    0.0000 H1        1 <0>         0.0000
     40 H3          7.3181    2.7479    0.0000 H1        1 <0>         0.0000
     41 H4          5.9005    2.9276    0.0000 H1        1 <0>         0.0000
     42 H5          5.7968    2.1091    0.0000 HC        1 <0>         0.0000
     43 H6          5.7968    2.1091    0.0000 HC        1 <0>         0.0000
     44 H7          6.4538    1.6101    0.0000 HC        1 <0>         0.0000
     45 H8          6.4538    1.6101    0.0000 HC        1 <0>         0.0000
     46 H9          6.3500    0.7916    0.0000 HC        1 <0>         0.0000
     47 H10         6.3500    0.7916    0.0000 HC        1 <0>         0.0000
     48 H11         5.5894    0.4722    0.0000 HC        1 <0>         0.0000
     49 H12         5.5894    0.4722    0.0000 HC        1 <0>         0.0000
     50 H13         5.4856   -0.3462    0.0000 H1        1 <0>         0.0000
     51 H14         4.1718    0.6519    0.0000 HC        1 <0>         0.0000
     52 H15         4.9324    0.9713    0.0000 HC        1 <0>         0.0000
     53 H16         4.9324    0.9713    0.0000 HC        1 <0>         0.0000
     54 H17         4.9324    0.9713    0.0000 HC        1 <0>         0.0000
     55 H18         3.4111    0.3325    0.0000 HO        1 <0>         0.0000
     56 H19         2.9616    2.4685    0.0000 H1        1 <0>         0.0000
     57 H20         3.0653    3.2869    0.0000 HC        1 <0>         0.0000
     58 H21         2.4084    3.7860    0.0000 HC        1 <0>         0.0000
     59 H22         2.4084    3.7860    0.0000 HC        1 <0>         0.0000
     60 H23         2.4084    3.7860    0.0000 HC        1 <0>         0.0000
     61 H24         3.8260    3.6063    0.0000 HA        1 <0>         0.0000
     62 H25         4.4829    3.1072    0.0000 HA        1 <0>         0.0000
     63 H26         5.2436    3.4266    0.0000 H1        1 <0>         0.0000
     64 H27         4.6904    4.7442    0.0000 H1        1 <0>         0.0000
     65 H28         4.6904    4.7442    0.0000 H1        1 <0>         0.0000
     66 H29         4.6904    4.7442    0.0000 H1        1 <0>         0.0000
     67 H30         2.2009    2.1491    0.0000 HC        1 <0>         0.0000
     68 H31         1.5440    2.6481    0.0000 HC        1 <0>         0.0000
     69 H32         1.5440    2.6481    0.0000 HC        1 <0>         0.0000
     70 H33         1.5440    2.6481    0.0000 HC        1 <0>         0.0000
     71 H34         2.0972    1.3306    0.0000 H1        1 <0>         0.0000
     72 H35         1.3366    1.0112    0.0000 HO        1 <0>         0.0000
     73 H36         2.7542    0.8315    0.0000 H1        1 <0>         0.0000
     74 H37         1.8898   -0.3063    0.0000 H1        1 <0>         0.0000
     75 H38         1.8898   -0.3063    0.0000 H1        1 <0>         0.0000
     76 H39         1.8898   -0.3063    0.0000 H1        1 <0>         0.0000
     77 H40         6.9032   -0.5259    0.0000 HA        1 <0>         0.0000
     78 H41         7.5602   -1.0249    0.0000 HA        1 <0>         0.0000
     79 H42         7.4564   -1.8434    0.0000 HA        1 <0>         0.0000
     80 H43         6.6958   -2.1628    0.0000 HA        1 <0>         0.0000
     81 H44         6.0388   -1.6637    0.0000 HA        1 <0>         0.0000
@<TRIPOS>BOND
     1    1    2 1
     2    2    3 1
     3    3    4 1
     4    4    5 1
     5    5    6 1
     6    6    7 1
     7    7    8 1
     8    8    9 1
     9    9   10 1
    10   10   11 2
    11   10   12 1
    12   12   13 1
    13   12   14 1
    14   14   15 1
    15   14   16 1
    16   16   17 1
    17   17   18 1
    18   18   19 1
    19   18   20 1
    20   20   21 2
    21   21   22 1
    22    3   22 1
    23   22   23 1
    24   23   24 1
    25   17   25 1
    26   25   26 1
    27   25   27 1
    28   27   28 1
    29   27   29 1
    30   14   29 1
    31   29   30 1
    32   30   31 1
    33    8   32 1
    34   32   33 ar
    35   33   34 ar
    36   34   35 ar
    37   35   36 ar
    38   36   37 ar
    39   32   37 ar
    40    1   38 1
    41    1   39 1
    42    1   40 1
    43    3   41 1
    44    4   42 1
    45    4   43 1
    46    5   44 1
    47    5   45 1
    48    6   46 1
    49    6   47 1
    50    7   48 1
    51    7   49 1
    52    8   50 1
    53   12   51 1
    54   13   52 1
    55   13   53 1
    56   13   54 1
    57   15   55 1
    58   17   56 1
    59   18   57 1
    60   19   58 1
    61   19   59 1
    62   19   60 1
    63   20   61 1
    64   21   62 1
    65   22   63 1
    66   24   64 1
    67   24   65 1
    68   24   66 1
    69   25   67 1
    70   26   68 1
    71   26   69 1
    72   26   70 1
    73   27   71 1
    74   28   72 1
    75   29   73 1
    76   31   74 1
    77   31   75 1
    78   31   76 1
    79   33   77 1
    80   34   78 1
    81   35   79 1
    82   36   80 1
    83   37   81 1
@<TRIPOS>MOLECULE
*****
   54    56     0     0     0
SMALL
NO_CHARGES

@<TRIPOS>ATOM
      1 C1         -1.4289    0.8250    0.0000 CT        1 <0>         0.0000
      2 C2         -1.4289    0.0000    0.0000 CM        1 <0>         0.0000
      3 C3         -2.1434   -0.4125    0.0000 CM        1 <0>         0.0000
      4 C4         -2.8579    0.0000    0.0000 CA        1 <0>         0.0000
      5 C5         -3.5724   -0.4125    0.0000 CA        1 <0>         0.0000
      6 C6         -4.2868    0.0000    0.0000 CA        1 <0>         0.0000
      7 C7         -4.2868    0.8250    0.0000 CA        1 <0>         0.0000
      8 C8         -3.5724    1.2375    0.0000 CA        1 <0>         0.0000
      9 C9         -2.8579    0.8250    0.0000 CA        1 <0>         0.0000
     10 C10        -5.0013    1.2375    0.0000 C         1 <0>         0.0000
     11 O1         -5.0013    2.0625    0.0000 OH        1 <0>         0.0000
     12 O2         -5.7158    0.8250    0.0000 O         1 <0>         0.0000
     13 C11        -0.7145   -0.4125    0.0000 CA        1 <0>         0.0000
     14 C12        -0.7145   -1.2375    0.0000 CA        1 <0>         0.0000
     15 C13         0.0000   -1.6500    0.0000 CA        1 <0>         0.0000
     16 C14         0.7145   -1.2375    0.0000 CA        1 <0>         0.0000
     17 C15         0.7145   -0.4125    0.0000 CA        1 <0>         0.0000
     18 C16         0.0000    0.0000    0.0000 CA        1 <0>         0.0000
     19 C17         1.4289    0.0000    0.0000 CT        1 <0>         0.0000
     20 C18         0.8986    0.6320    0.0000 CT        1 <0>         0.0000
     21 C19         1.9592    0.6320    0.0000 CT        1 <0>         0.0000
     22 C20         2.1434   -0.4125    0.0000 CT        1 <0>         0.0000
     23 C21         2.1434   -1.2375    0.0000 CT        1 <0>         0.0000
     24 C22         1.4289   -1.6500    0.0000 CT        1 <0>         0.0000
     25 C23         1.8163   -2.3784    0.0000 CT        1 <0>         0.0000
     26 C24         1.0416   -2.3784    0.0000 CT        1 <0>         0.0000
     27 H1         -1.4289    0.8250    0.0000 HC        1 <0>         0.0000
     28 H2         -1.4289    0.8250    0.0000 HC        1 <0>         0.0000
     29 H3         -1.4289    0.8250    0.0000 HC        1 <0>         0.0000
     30 H4         -2.1434   -0.4125    0.0000 HA        1 <0>         0.0000
     31 H5         -3.5724   -0.4125    0.0000 HA        1 <0>         0.0000
     32 H6         -4.2868    0.0000    0.0000 HA        1 <0>         0.0000
     33 H7         -3.5724    1.2375    0.0000 HA        1 <0>         0.0000
     34 H8         -2.8579    0.8250    0.0000 HA        1 <0>         0.0000
     35 H9         -5.0013    2.0625    0.0000 HO        1 <0>         0.0000
     36 H10        -0.7145   -1.2375    0.0000 HA        1 <0>         0.0000
     37 H11         0.0000   -1.6500    0.0000 HA        1 <0>         0.0000
     38 H12         0.0000    0.0000    0.0000 HA        1 <0>         0.0000
     39 H13         0.8986    0.6320    0.0000 HC        1 <0>         0.0000
     40 H14         0.8986    0.6320    0.0000 HC        1 <0>         0.0000
     41 H15         0.8986    0.6320    0.0000 HC        1 <0>         0.0000
     42 H16         1.9592    0.6320    0.0000 HC        1 <0>         0.0000
     43 H17         1.9592    0.6320    0.0000 HC        1 <0>         0.0000
     44 H18         1.9592    0.6320    0.0000 HC        1 <0>         0.0000
     45 H19         2.1434   -0.4125    0.0000 HC        1 <0>         0.0000
     46 H20         2.1434   -0.4125    0.0000 HC        1 <0>         0.0000
     47 H21         2.1434   -1.2375    0.0000 HC        1 <0>         0.0000
     48 H22         2.1434   -1.2375    0.0000 HC        1 <0>         0.0000
     49 H23         1.8163   -2.3784    0.0000 HC        1 <0>         0.0000
     50 H24         1.8163   -2.3784    0.0000 HC        1 <0>         0.0000
     51 H25         1.8163   -2.3784    0.0000 HC        1 <0>         0.0000
     52 H26         1.0416   -2.3784    0.0000 HC        1 <0>         0.0000
     53 H27         1.0416   -2.3784    0.0000 HC        1 <0>         0.0000
     54 H28         1.0416   -2.3784    0.0000 HC        1 <0>         0.0000
@<TRIPOS>BOND
     1    1    2 1
     2    2    3 2
     3    3    4 1
     4    4    5 ar
     5    5    6 ar
     6    6    7 ar
     7    7    8 ar
     8    8    9 ar
     9    4    9 ar
    10    7   10 1
    11   10   11 1
    12   10   12 2
    13    2   13 1
    14   13   14 ar
    15   14   15 ar
    16   15   16 ar
    17   16   17 ar
    18   17   18 ar
    19   13   18 ar
    20   17   19 1
    21   19   20 1
    22   19   21 1
    23   19   22 1
    24   22   23 1
    25   23   24 1
    26   16   24 1
    27   24   25 1
    28   24   26 1
    29    1   27 1
    30    1   28 1
    31    1   29 1
    32    3   30 1
    33    5   31 1
    34    6   32 1
    35    8   33 1
    36    9   34 1
    37   11   35 1
    38   14   36 1
    39   15   37 1
    40   18   38 1
    41   20   39 1
    42   20   40 1
    43   20   41 1
    44   21   42 1
    45   21   43 1
    46   21   44 1
    47   22   45 1
    48   22   46 1
    49   23   47 1
    50   23   48 1
    51   25   49 1
    52   25   50 1
    53   25   51 1
    54   26   52 1
    55   26   53 1
    56   26   54 1
@<TRIPOS>MOLECULE
Untitled Document-7
   51    54     0     0     0
SMALL
NO_CHARGES

@<TRIPOS>ATOM
      1 C1         -2.0637   -0.3135    0.0000 CT        1 <0>         0.0000
      2 C2         -2.0637   -1.1385    0.0000 C         1 <0>         0.0000
      3 C3         -1.3492   -1.5510    0.0000 CT        1 <0>         0.0000
      4 C4         -0.6348   -1.1385    0.0000 CT        1 <0>         0.0000
      5 C5         -0.6348   -0.3135    0.0000 CT        1 <0>         0.0000
      6 C6         -1.3492    0.0990    0.0000 CT        1 <0>         0.0000
      7 C7          0.0797   -1.5510    0.0000 CT        1 <0>         0.0000
      8 C8          0.7942   -1.1385    0.0000 CT        1 <0>         0.0000
      9 C9          0.7942   -0.3135    0.0000 CT        1 <0>         0.0000
     10 C10         0.0797    0.0990    0.0000 CT        1 <0>         0.0000
     11 C11         1.5086    0.0990    0.0000 CT        1 <0>         0.0000
     12 C12         1.5086    0.9240    0.0000 CT        1 <0>         0.0000
     13 C13         0.7942    1.3365    0.0000 CT        1 <0>         0.0000
     14 C14         0.0797    0.9240    0.0000 CT        1 <0>         0.0000
     15 C15         2.2933   -0.1560    0.0000 CT        1 <0>         0.0000
     16 C16         2.7782    0.5115    0.0000 CT        1 <0>         0.0000
     17 C17         2.2933    1.1789    0.0000 CT        1 <0>         0.0000
     18 O1         -2.7782   -1.5510    0.0000 O         1 <0>         0.0000
     19 C18        -0.6348    0.5115    0.0000 CT        1 <0>         0.0000
     20 H1          0.7942    0.5060    0.0000 HC        1 <0>         0.0000
     21 C19         1.5949    1.7445    0.0000 CT        1 <0>         0.0000
     22 O2          2.5482    1.9635    0.0000 OH        1 <0>         0.0000
     23 H2         -0.6348   -1.9635    0.0000 HC        1 <0>         0.0000
     24 H3          0.0797   -0.7260    0.0000 HC        1 <0>         0.0000
     25 H4          1.5086   -0.7260    0.0000 HC        1 <0>         0.0000
     26 H5         -2.0637   -0.3135    0.0000 HC        1 <0>         0.0000
     27 H6         -2.0637   -0.3135    0.0000 HC        1 <0>         0.0000
     28 H7         -1.3492   -1.5510    0.0000 HC        1 <0>         0.0000
     29 H8         -1.3492   -1.5510    0.0000 HC        1 <0>         0.0000
     30 H9         -1.3492    0.0990    0.0000 HC        1 <0>         0.0000
     31 H10        -1.3492    0.0990    0.0000 HC        1 <0>         0.0000
     32 H11         0.0797   -1.5510    0.0000 HC        1 <0>         0.0000
     33 H12         0.0797   -1.5510    0.0000 HC        1 <0>         0.0000
     34 H13         0.7942   -1.1385    0.0000 HC        1 <0>         0.0000
     35 H14         0.7942   -1.1385    0.0000 HC        1 <0>         0.0000
     36 H15         0.7942    1.3365    0.0000 HC        1 <0>         0.0000
     37 H16         0.7942    1.3365    0.0000 HC        1 <0>         0.0000
     38 H17         0.0797    0.9240    0.0000 HC        1 <0>         0.0000
     39 H18         0.0797    0.9240    0.0000 HC        1 <0>         0.0000
     40 H19         2.2933   -0.1560    0.0000 HC        1 <0>         0.0000
     41 H20         2.2933   -0.1560    0.0000 HC        1 <0>         0.0000
     42 H21         2.7782    0.5115    0.0000 HC        1 <0>         0.0000
     43 H22         2.7782    0.5115    0.0000 HC        1 <0>         0.0000
     44 H23         2.2933    1.1789    0.0000 H1        1 <0>         0.0000
     45 H24        -0.6348    0.5115    0.0000 HC        1 <0>         0.0000
     46 H25        -0.6348    0.5115    0.0000 HC        1 <0>         0.0000
     47 H26        -0.6348    0.5115    0.0000 HC        1 <0>         0.0000
     48 H27         1.5949    1.7445    0.0000 HC        1 <0>         0.0000
     49 H28         1.5949    1.7445    0.0000 HC        1 <0>         0.0000
     50 H29         1.5949    1.7445    0.0000 HC        1 <0>         0.0000
     51 H30         2.5482    1.9635    0.0000 HO        1 <0>         0.0000
@<TRIPOS>BOND
     1    1    2 1
     2    2    3 1
     3    3    4 1
     4    4    5 1
     5    5    6 1
     6    1    6 1
     7    4    7 1
     8    7    8 1
     9    8    9 1
    10    9   10 1
    11    5   10 1
    12    9   11 1
    13   11   12 1
    14   12   13 1
    15   13   14 1
    16   10   14 1
    17   11   15 1
    18   15   16 1
    19   16   17 1
    20   12   17 1
    21    2   18 2
    22    5   19 1
    23    9   20 1
    24   12   21 1
    25   17   22 1
    26    4   23 1
    27   10   24 1
    28   11   25 1
    29    1   26 1
    30    1   27 1
    31    3   28 1
    32    3   29 1
    33    6   30 1
    34    6   31 1
    35    7   32 1
    36    7   33 1
    37    8   34 1
    38    8   35 1
    39   13   36 1
    40   13   37 1
    41   14   38 1
    42   14   39 1
    43   15   40 1
    44   15   41 1
    45   16   42 1
    46   16   43 1
    47   17   44 1
    48   19   45 1
    49   19   46 1
    50   19   47 1
    51   21   48 1
    52   21   49 1
    53   21   50 1
    54   22   51 1
@<TRIPOS>MOLECULE
CAX
   31    31     0     0     0
SMALL
NO_CHARGES

@<TRIPOS>ATOM
      1 O1          2.0223    1.5951    0.0000 OH        1 <0>         0.0000
      2 C1          1.2377    1.3401    0.0000 CT        1 <0>         0.0000
      3 O2          0.6246    1.8922    0.0000 OH        1 <0>         0.0000
      4 C2          1.0662    0.5332    0.0000 CT        1 <0>         0.0000
      5 C3          0.2815    0.2782    0.0000 CT        1 <0>         0.0000
      6 C4          0.0266   -0.5064    0.0000 CT        1 <0>         0.0000
      7 C5          0.8336   -0.6779    0.0000 CT        1 <0>         0.0000
      8 C6         -0.0596   -1.3269    0.0000 CT        1 <0>         0.0000
      9 C7         -0.7984   -0.5064    0.0000 CT        1 <0>         0.0000
     10 C8         -1.2833   -1.1738    0.0000 CT        1 <0>         0.0000
     11 C9         -1.0533    0.2782    0.0000 C         1 <0>         0.0000
     12 O3         -1.8380    0.5332    0.0000 O         1 <0>         0.0000
     13 C10        -0.3859    0.7632    0.0000 CT        1 <0>         0.0000
     14 H1          0.8108    0.0315    0.0000 HC        1 <0>         0.0000
     15 H2         -0.7272   -1.0860    0.0000 HC        1 <0>         0.0000
     16 H3          2.0223    1.5951    0.0000 HX        1 <0>         0.0000
     17 H4          1.2377    1.3401    0.0000 H2        1 <0>         0.0000
     18 H5          0.6246    1.8922    0.0000 HX        1 <0>         0.0000
     19 H6          1.0662    0.5332    0.0000 HC        1 <0>         0.0000
     20 H7          1.0662    0.5332    0.0000 HC        1 <0>         0.0000
     21 H8          0.8336   -0.6779    0.0000 HC        1 <0>         0.0000
     22 H9          0.8336   -0.6779    0.0000 HC        1 <0>         0.0000
     23 H10         0.8336   -0.6779    0.0000 HC        1 <0>         0.0000
     24 H11        -0.0596   -1.3269    0.0000 HC        1 <0>         0.0000
     25 H12        -0.0596   -1.3269    0.0000 HC        1 <0>         0.0000
     26 H13        -0.0596   -1.3269    0.0000 HC        1 <0>         0.0000
     27 H14        -1.2833   -1.1738    0.0000 HC        1 <0>         0.0000
     28 H15        -1.2833   -1.1738    0.0000 HC        1 <0>         0.0000
     29 H16        -1.2833   -1.1738    0.0000 HC        1 <0>         0.0000
     30 H17        -0.3859    0.7632    0.0000 HC        1 <0>         0.0000
     31 H18        -0.3859    0.7632    0.0000 HC        1 <0>         0.0000
@<TRIPOS>BOND
     1    1    2 1
     2    2    3 1
     3    2    4 1
     4    4    5 1
     5    5    6 1
     6    5   13 1
     7    5   14 1
     8    6    7 1
     9    6    8 1
    10    6    9 1
    11    9   10 1
    12    9   11 1
    13    9   15 1
    14   11   12 2
    15   11   13 1
    16    1   16 1
    17    2   17 1
    18    3   18 1
    19    4   19 1
    20    4   20 1
    21    7   21 1
    22    7   22 1
    23    7   23 1
    24    8   24 1
    25    8   25 1
    26    8   26 1
    27   10   27 1
    28   10   28 1
    29   10   29 1
    30   13   30 1
    31   13   31 1
@<TRIPOS>MOLECULE
*****
   48    48     0     0     0
SMALL
NO_CHARGES

@<TRIPOS>ATOM
      1 C1          6.4302    2.0625    0.0000 CT        1 <0>         0.0000
      2 C2          6.4302    1.2375    0.0000 CM        1 <0>         0.0000
      3 C3          7.1447    0.8250    0.0000 CM        1 <0>         0.0000
      4 C4          7.8592    1.2375    0.0000 CM        1 <0>         0.0000
      5 C5          5.7158    0.8250    0.0000 CM        1 <0>         0.0000
      6 C6          5.0013    1.2375    0.0000 CM        1 <0>         0.0000
      7 C7          4.2868    0.8250    0.0000 CM        1 <0>         0.0000
      8 C8          3.5724    1.2375    0.0000 CM        1 <0>         0.0000
      9 C9          3.5724    2.0625    0.0000 CT        1 <0>         0.0000
     10 C10         2.8579    0.8250    0.0000 CM        1 <0>         0.0000
     11 C11         2.1434    1.2375    0.0000 CM        1 <0>         0.0000
     12 C12         1.4289    0.8250    0.0000 CM        1 <0>         0.0000
     13 C13         1.4289    0.0000    0.0000 CM        1 <0>         0.0000
     14 C14         2.1434   -0.4125    0.0000 CT        1 <0>         0.0000
     15 C15         0.7145   -0.4125    0.0000 CM        1 <0>         0.0000
     16 C16         0.0000    0.0000    0.0000 CT        1 <0>         0.0000
     17 C17         0.0000    0.8250    0.0000 CT        1 <0>         0.0000
     18 C18         0.7145    1.2375    0.0000 CT        1 <0>         0.0000
     19 C19         0.3272    1.9659    0.0000 CT        1 <0>         0.0000
     20 C20         1.1018    1.9659    0.0000 CT        1 <0>         0.0000
     21 H1          6.4302    2.0625    0.0000 HC        1 <0>         0.0000
     22 H2          6.4302    2.0625    0.0000 HC        1 <0>         0.0000
     23 H3          6.4302    2.0625    0.0000 HC        1 <0>         0.0000
     24 H4          7.1447    0.8250    0.0000 HA        1 <0>         0.0000
     25 H5          7.8592    1.2375    0.0000 HA        1 <0>         0.0000
     26 H6          7.8592    1.2375    0.0000 HA        1 <0>         0.0000
     27 H7          5.7158    0.8250    0.0000 HA        1 <0>         0.0000
     28 H8          5.0013    1.2375    0.0000 HA        1 <0>         0.0000
     29 H9          4.2868    0.8250    0.0000 HA        1 <0>         0.0000
     30 H10         3.5724    2.0625    0.0000 HC        1 <0>         0.0000
     31 H11         3.5724    2.0625    0.0000 HC        1 <0>         0.0000
     32 H12         3.5724    2.0625    0.0000 HC        1 <0>         0.0000
     33 H13         2.8579    0.8250    0.0000 HA        1 <0>         0.0000
     34 H14         2.1434    1.2375    0.0000 HA        1 <0>         0.0000
     35 H15         2.1434   -0.4125    0.0000 HC        1 <0>         0.0000
     36 H16         2.1434   -0.4125    0.0000 HC        1 <0>         0.0000
     37 H17         2.1434   -0.4125    0.0000 HC        1 <0>         0.0000
     38 H18         0.7145   -0.4125    0.0000 HA        1 <0>         0.0000
     39 H19         0.0000    0.0000    0.0000 HC        1 <0>         0.0000
     40 H20         0.0000    0.0000    0.0000 HC        1 <0>         0.0000
     41 H21         0.0000    0.8250    0.0000 HC        1 <0>         0.0000
     42 H22         0.0000    0.8250    0.0000 HC        1 <0>         0.0000
     43 H23         0.3272    1.9659    0.0000 HC        1 <0>         0.0000
     44 H24         0.3272    1.9659    0.0000 HC        1 <0>         0.0000
     45 H25         0.3272    1.9659    0.0000 HC        1 <0>         0.0000
     46 H26         1.1018    1.9659    0.0000 HC        1 <0>         0.0000
     47 H27         1.1018    1.9659    0.0000 HC        1 <0>         0.0000
     48 H28         1.1018    1.9659    0.0000 HC        1 <0>         0.0000
@<TRIPOS>BOND
     1    1    2 1
     2    2    3 1
     3    3    4 2
     4    2    5 2
     5    5    6 1
     6    6    7 2
     7    7    8 1
     8    8    9 1
     9    8   10 2
    10   10   11 1
    11   11   12 2
    12   12   13 1
    13   13   14 1
    14   13   15 2
    15   15   16 1
    16   16   17 1
    17   17   18 1
    18   12   18 1
    19   18   19 1
    20   18   20 1
    21    1   21 1
    22    1   22 1
    23    1   23 1
    24    3   24 1
    25    4   25 1
    26    4   26 1
    27    5   27 1
    28    6   28 1
    29    7   29 1
    30    9   30 1
    31    9   31 1
    32    9   32 1
    33   10   33 1
    34   11   34 1
    35   14   35 1
    36   14   36 1
    37   14   37 1
    38   15   38 1
    39   16   39 1
    40   16   40 1
    41   17   41 1
    42   17   42 1
    43   19   43 1
    44   19   44 1
    45   19   45 1
    46   20   46 1
    47   20   47 1
    48   20   48 1
@<TRIPOS>MOLECULE
BPY
   24    25     0     0     0
SMALL
NO_CHARGES

@<TRIPOS>ATOM
      1 C1         -1.1069    0.3918    0.0000 CA        1 <0>         0.0000
      2 C2         -0.3924   -0.0207    0.0000 CP        1 <0>         0.0000
      3 C3         -0.3924   -0.8457    0.0000 CA        1 <0>         0.0000
      4 C4         -1.1069   -1.2582    0.0000 CA        1 <0>         0.0000
      5 C5         -1.8213   -0.8457    0.0000 CA        1 <0>         0.0000
      6 C6         -1.8213   -0.0207    0.0000 CA        1 <0>         0.0000
      7 C7          0.3221    0.3918    0.0000 CP        1 <0>         0.0000
      8 C8          0.3221    1.2168    0.0000 CA        1 <0>         0.0000
      9 C9          1.0366    1.6293    0.0000 CA        1 <0>         0.0000
     10 C10         1.7510    1.2168    0.0000 CA        1 <0>         0.0000
     11 C11         1.7510    0.3918    0.0000 CA        1 <0>         0.0000
     12 C12         1.0366   -0.0207    0.0000 CA        1 <0>         0.0000
     13 O1         -1.1069   -2.0832    0.0000 OH        1 <0>         0.0000
     14 O2          0.3221   -1.2582    0.0000 OH        1 <0>         0.0000
     15 H1         -1.1069    0.3918    0.0000 HA        1 <0>         0.0000
     16 H2         -1.8213   -0.8457    0.0000 HA        1 <0>         0.0000
     17 H3         -1.8213   -0.0207    0.0000 HA        1 <0>         0.0000
     18 H4          0.3221    1.2168    0.0000 HA        1 <0>         0.0000
     19 H5          1.0366    1.6293    0.0000 HA        1 <0>         0.0000
     20 H6          1.7510    1.2168    0.0000 HA        1 <0>         0.0000
     21 H7          1.7510    0.3918    0.0000 HA        1 <0>         0.0000
     22 H8          1.0366   -0.0207    0.0000 HA        1 <0>         0.0000
     23 H9         -1.1069   -2.0832    0.0000 HO        1 <0>         0.0000
     24 H10         0.3221   -1.2582    0.0000 HO        1 <0>         0.0000
@<TRIPOS>BOND
     1    1    2 ar
     2    1    6 ar
     3    2    3 ar
     4    2    7 1
     5    3    4 ar
     6    3   14 1
     7    4    5 ar
     8    4   13 1
     9    5    6 ar
    10    7    8 ar
    11    7   12 ar
    12    8    9 ar
    13    9   10 ar
    14   10   11 ar
    15   11   12 ar
    16    1   15 1
    17    5   16 1
    18    6   17 1
    19    8   18 1
    20    9   19 1
    21   10   20 1
    22   11   21 1
    23   12   22 1
    24   13   23 1
    25   14   24 1
@<TRIPOS>MOLECULE
*****
   27    28     0     0     0
SMALL
NO_CHARGES

@<TRIPOS>ATOM
      1 C1          3.5724    2.8875    0.0000 CT        1 <0>         0.0000
      2 C2          3.5724    2.0625    0.0000 CM        1 <0>         0.0000
      3 C3          4.2868    1.6500    0.0000 CM        1 <0>         0.0000
      4 C4          2.8579    1.6500    0.0000 CT        1 <0>         0.0000
      5 C5          2.8579    0.8250    0.0000 CT        1 <0>         0.0000
      6 C6          2.1434    0.4125    0.0000 CT        1 <0>         0.0000
      7 C7          1.4289    0.8250    0.0000 CJ        1 <0>         0.0000
      8 C8          1.0164    0.1105    0.0000 CT        1 <0>         0.0000
      9 O1          0.7145    1.2375    0.0000 OS        1 <0>         0.0000
     10 C9          1.4289    1.6500    0.0000 CJ        1 <0>         0.0000
     11 C10         2.1434    2.0625    0.0000 CT        1 <0>         0.0000
     12 H1          3.5724    2.8875    0.0000 HC        1 <0>         0.0000
     13 H2          3.5724    2.8875    0.0000 HC        1 <0>         0.0000
     14 H3          3.5724    2.8875    0.0000 HC        1 <0>         0.0000
     15 H4          4.2868    1.6500    0.0000 HA        1 <0>         0.0000
     16 H5          4.2868    1.6500    0.0000 HA        1 <0>         0.0000
     17 H6          2.8579    1.6500    0.0000 HC        1 <0>         0.0000
     18 H7          2.8579    0.8250    0.0000 HC        1 <0>         0.0000
     19 H8          2.8579    0.8250    0.0000 HC        1 <0>         0.0000
     20 H9          2.1434    0.4125    0.0000 HC        1 <0>         0.0000
     21 H10         2.1434    0.4125    0.0000 HC        1 <0>         0.0000
     22 H11         1.0164    0.1105    0.0000 HC        1 <0>         0.0000
     23 H12         1.0164    0.1105    0.0000 HC        1 <0>         0.0000
     24 H13         1.0164    0.1105    0.0000 HC        1 <0>         0.0000
     25 H14         1.4289    1.6500    0.0000 H1        1 <0>         0.0000
     26 H15         2.1434    2.0625    0.0000 HC        1 <0>         0.0000
     27 H16         2.1434    2.0625    0.0000 HC        1 <0>         0.0000
@<TRIPOS>BOND
     1    1    2 1
     2    2    3 2
     3    2    4 1
     4    4    5 1
     5    5    6 1
     6    6    7 1
     7    7    8 1
     8    7    9 1
     9    9   10 1
    10    7   10 1
    11   10   11 1
    12    4   11 1
    13    1   12 1
    14    1   13 1
    15    1   14 1
    16    3   15 1
    17    3   16 1
    18    4   17 1
    19    5   18 1
    20    5   19 1
    21    6   20 1
    22    6   21 1
    23    8   22 1
    24    8   23 1
    25    8   24 1
    26   10   25 1
    27   11   26 1
    28   11   27 1
@<TRIPOS>MOLECULE
*****
   23    22     0     0     0
SMALL
NO_CHARGES

@<TRIPOS>ATOM
      1 C1          2.9980    2.5559    0.0000 CT        1 <0>         0.0000
      2 O1          3.7125    2.1434    0.0000 OS        1 <0>         0.0000
      3 C2          4.4270    2.5559    0.0000 CT        1 <0>         0.0000
      4 C3          5.1414    2.1434    0.0000 CT        1 <0>         0.0000
      5 O2          5.8559    2.5559    0.0000 OS        1 <0>         0.0000
      6 C4          6.5704    2.1434    0.0000 CT        1 <0>         0.0000
      7 C5          7.2849    2.5559    0.0000 CT        1 <0>         0.0000
      8 O3          7.9993    2.1434    0.0000 OS        1 <0>         0.0000
      9 C6          8.7138    2.5559    0.0000 CT        1 <0>         0.0000
     10 H1          2.9980    2.5559    0.0000 H1        1 <0>         0.0000
     11 H2          2.9980    2.5559    0.0000 H1        1 <0>         0.0000
     12 H3          2.9980    2.5559    0.0000 H1        1 <0>         0.0000
     13 H4          4.4270    2.5559    0.0000 H1        1 <0>         0.0000
     14 H5          4.4270    2.5559    0.0000 H1        1 <0>         0.0000
     15 H6          5.1414    2.1434    0.0000 H1        1 <0>         0.0000
     16 H7          5.1414    2.1434    0.0000 H1        1 <0>         0.0000
     17 H8          6.5704    2.1434    0.0000 H1        1 <0>         0.0000
     18 H9          6.5704    2.1434    0.0000 H1        1 <0>         0.0000
     19 H10         7.2849    2.5559    0.0000 H1        1 <0>         0.0000
     20 H11         7.2849    2.5559    0.0000 H1        1 <0>         0.0000
     21 H12         8.7138    2.5559    0.0000 H1        1 <0>         0.0000
     22 H13         8.7138    2.5559    0.0000 H1        1 <0>         0.0000
     23 H14         8.7138    2.5559    0.0000 H1        1 <0>         0.0000
@<TRIPOS>BOND
     1    1    2 1
     2    2    3 1
     3    3    4 1
     4    4    5 1
     5    5    6 1
     6    6    7 1
     7    7    8 1
     8    8    9 1
     9    1   10 1
    10    1   11 1
    11    1   12 1
    12    3   13 1
    13    3   14 1
    14    4   15 1
    15    4   16 1
    16    6   17 1
    17    6   18 1
    18    7   19 1
    19    7   20 1
    20    9   21 1
    21    9   22 1
    22    9   23 1
@<TRIPOS>MOLECULE
*****
   23    22     0     0     0
SMALL
NO_CHARGES

@<TRIPOS>ATOM
      1 C1          1.0461    1.4289    0.0000 CT        1 <0>         0.0000
      2 C2          1.7605    1.8414    0.0000 CT        1 <0>         0.0000
      3 C3          2.4750    1.4289    0.0000 CT        1 <0>         0.0000
      4 C4          3.1895    1.8414    0.0000 CT        1 <0>         0.0000
      5 C5          3.9039    1.4289    0.0000 CT        1 <0>         0.0000
      6 C6          4.6184    1.8414    0.0000 CT        1 <0>         0.0000
      7 C7          5.3329    1.4289    0.0000 C         1 <0>         0.0000
      8 O1          6.0474    1.8414    0.0000 OH        1 <0>         0.0000
      9 O2          5.3329    0.6039    0.0000 O         1 <0>         0.0000
     10 H1          1.0461    1.4289    0.0000 HC        1 <0>         0.0000
     11 H2          1.0461    1.4289    0.0000 HC        1 <0>         0.0000
     12 H3          1.0461    1.4289    0.0000 HC        1 <0>         0.0000
     13 H4          1.7605    1.8414    0.0000 HC        1 <0>         0.0000
     14 H5          1.7605    1.8414    0.0000 HC        1 <0>         0.0000
     15 H6          2.4750    1.4289    0.0000 HC        1 <0>         0.0000
     16 H7          2.4750    1.4289    0.0000 HC        1 <0>         0.0000
     17 H8          3.1895    1.8414    0.0000 HC        1 <0>         0.0000
     18 H9          3.1895    1.8414    0.0000 HC        1 <0>         0.0000
     19 H10         3.9039    1.4289    0.0000 HC        1 <0>         0.0000
     20 H11         3.9039    1.4289    0.0000 HC        1 <0>         0.0000
     21 H12         4.6184    1.8414    0.0000 HC        1 <0>         0.0000
     22 H13         4.6184    1.8414    0.0000 HC        1 <0>         0.0000
     23 H14         6.0474    1.8414    0.0000 HO        1 <0>         0.0000
@<TRIPOS>BOND
     1    1    2 1
     2    2    3 1
     3    3    4 1
     4    4    5 1
     5    5    6 1
     6    6    7 1
     7    7    8 1
     8    7    9 2
     9    1   10 1
    10    1   11 1
    11    1   12 1
    12    2   13 1
    13    2   14 1
    14    3   15 1
    15    3   16 1
    16    4   17 1
    17    4   18 1
    18    5   19 1
    19    5   20 1
    20    6   21 1
    21    6   22 1
    22    8   23 1
@<TRIPOS>MOLECULE
*****
   23    23     0     0     0
SMALL
NO_CHARGES

@<TRIPOS>ATOM
      1 C1          1.4289    0.8250    0.0000 CT        1 <0>         0.0000
      2 C2          0.7145    1.2375    0.0000 CT        1 <0>         0.0000
      3 C3          1.4289   -0.0000    0.0000 CT        1 <0>         0.0000
      4 C4          0.0000    0.8250    0.0000 CT        1 <0>         0.0000
      5 C5         -0.7145    1.2375    0.0000 C         1 <0>         0.0000
      6 C6          0.7145   -0.4125    0.0000 CT        1 <0>         0.0000
      7 O1          2.1434    1.2375    0.0000 OH        1 <0>         0.0000
      8 O2          0.7145    2.0625    0.0000 OH        1 <0>         0.0000
      9 O3          2.1434   -0.4125    0.0000 OH        1 <0>         0.0000
     10 O4         -1.4289    0.8250    0.0000 O         1 <0>         0.0000
     11 O5         -0.7145    2.0625    0.0000 OH        1 <0>         0.0000
     12 O6          0.7145   -1.2375    0.0000 OH        1 <0>         0.0000
     13 O7          0.0000    0.0000    0.0000 OS        1 <0>         0.0000
     14 H1          1.1468    1.6002    0.0000 H1        1 <0>         0.0000
     15 H2          1.2448    1.8695    0.0000 H1        1 <0>         0.0000
     16 H3          2.1434    0.4125    0.0000 H1        1 <0>         0.0000
     17 H4          0.0000    1.6500    0.0000 H1        1 <0>         0.0000
     18 H5          1.4289   -0.8250    0.0000 H2        1 <0>         0.0000
     19 H6          2.1434    1.2375    0.0000 HO        1 <0>         0.0000
     20 H7          0.7145    2.0625    0.0000 HO        1 <0>         0.0000
     21 H8          2.1434   -0.4125    0.0000 HO        1 <0>         0.0000
     22 H9         -0.7145    2.0625    0.0000 HO        1 <0>         0.0000
     23 H10         0.7145   -1.2375    0.0000 HO        1 <0>         0.0000
@<TRIPOS>BOND
     1    1    2 1
     2    1    3 1
     3    2    4 1
     4    4    5 1
     5    3    6 1
     6    1    7 1
     7    2    8 1
     8    3    9 1
     9    5   10 2
    10    5   11 1
    11    6   12 1
    12    4   13 1
    13    6   13 1
    14    1   14 1
    15    2   15 1
    16    3   16 1
    17    4   17 1
    18    6   18 1
    19    7   19 1
    20    8   20 1
    21    9   21 1
    22   11   22 1
    23   12   23 1
@<TRIPOS>MOLECULE
*****
   11    10     0     0     0
SMALL
NO_CHARGES

@<TRIPOS>ATOM
      1 O1          1.2375    2.1434    0.0000 OH        1 <0>         0.0000
      2 C1          0.8250    1.4289    0.0000 CT        1 <0>         0.0000
      3 C2          1.2375    0.7145    0.0000 C         1 <0>         0.0000
      4 O2          2.0625    0.7145    0.0000 O         1 <0>         0.0000
      5 C3          0.8250    0.0000    0.0000 C         1 <0>         0.0000
      6 O3          1.2375   -0.7145    0.0000 OH        1 <0>         0.0000
      7 O4          0.0000    0.0000    0.0000 O         1 <0>         0.0000
      8 H1          1.2375    2.1434    0.0000 HO        1 <0>         0.0000
      9 H2          0.8250    1.4289    0.0000 H1        1 <0>         0.0000
     10 H3          0.8250    1.4289    0.0000 H1        1 <0>         0.0000
     11 H4          1.2375   -0.7145    0.0000 HO        1 <0>         0.0000
@<TRIPOS>BOND
     1    1    2 1
     2    2    3 1
     3    3    4 2
     4    3    5 1
     5    5    6 1
     6    5    7 2
     7    1    8 1
     8    2    9 1
     9    2   10 1
    10    6   11 1
@<TRIPOS>MOLECULE
*****
   55    54     0     0     0
SMALL
NO_CHARGES

@<TRIPOS>ATOM
      1 C1         -4.1467    2.5559    0.0000 CT        1 <0>         0.0000
      2 C2         -3.4322    2.1434    0.0000 CT        1 <0>         0.0000
      3 C3         -2.7177    2.5559    0.0000 CT        1 <0>         0.0000
      4 C4         -2.0033    2.1434    0.0000 CT        1 <0>         0.0000
      5 C5         -1.2888    2.5559    0.0000 CT        1 <0>         0.0000
      6 C6         -0.5743    2.1434    0.0000 CT        1 <0>         0.0000
      7 C7          0.1401    2.5559    0.0000 CT        1 <0>         0.0000
      8 O1          0.1401    3.3809    0.0000 OH        1 <0>         0.0000
      9 C8          0.8546    2.1434    0.0000 CT        1 <0>         0.0000
     10 C9          1.5691    2.5559    0.0000 CM        1 <0>         0.0000
     11 C10         2.2836    2.1434    0.0000 CM        1 <0>         0.0000
     12 C11         2.9980    2.5559    0.0000 CT        1 <0>         0.0000
     13 C12         3.7125    2.1434    0.0000 CT        1 <0>         0.0000
     14 C13         4.4270    2.5559    0.0000 CT        1 <0>         0.0000
     15 C14         5.1414    2.1434    0.0000 CT        1 <0>         0.0000
     16 C15         5.8559    2.5559    0.0000 CT        1 <0>         0.0000
     17 C16         6.5704    2.1434    0.0000 CT        1 <0>         0.0000
     18 C17         7.2849    2.5559    0.0000 CT        1 <0>         0.0000
     19 C18         7.9993    2.1434    0.0000 C         1 <0>         0.0000
     20 O2          8.7138    2.5559    0.0000 OH        1 <0>         0.0000
     21 O3          7.9993    1.3184    0.0000 O         1 <0>         0.0000
     22 H1         -4.1467    2.5559    0.0000 HC        1 <0>         0.0000
     23 H2         -4.1467    2.5559    0.0000 HC        1 <0>         0.0000
     24 H3         -4.1467    2.5559    0.0000 HC        1 <0>         0.0000
     25 H4         -3.4322    2.1434    0.0000 HC        1 <0>         0.0000
     26 H5         -3.4322    2.1434    0.0000 HC        1 <0>         0.0000
     27 H6         -2.7177    2.5559    0.0000 HC        1 <0>         0.0000
     28 H7         -2.7177    2.5559    0.0000 HC        1 <0>         0.0000
     29 H8         -2.0033    2.1434    0.0000 HC        1 <0>         0.0000
     30 H9         -2.0033    2.1434    0.0000 HC        1 <0>         0.0000
     31 H10        -1.2888    2.5559    0.0000 HC        1 <0>         0.0000
     32 H11        -1.2888    2.5559    0.0000 HC        1 <0>         0.0000
     33 H12        -0.5743    2.1434    0.0000 HC        1 <0>         0.0000
     34 H13        -0.5743    2.1434    0.0000 HC        1 <0>         0.0000
     35 H14         0.1401    2.5559    0.0000 H1        1 <0>         0.0000
     36 H15         0.1401    3.3809    0.0000 HO        1 <0>         0.0000
     37 H16         0.8546    2.1434    0.0000 HC        1 <0>         0.0000
     38 H17         0.8546    2.1434    0.0000 HC        1 <0>         0.0000
     39 H18         1.5691    2.5559    0.0000 HA        1 <0>         0.0000
     40 H19         2.2836    2.1434    0.0000 HA        1 <0>         0.0000
     41 H20         2.9980    2.5559    0.0000 HC        1 <0>         0.0000
     42 H21         2.9980    2.5559    0.0000 HC        1 <0>         0.0000
     43 H22         3.7125    2.1434    0.0000 HC        1 <0>         0.0000
     44 H23         3.7125    2.1434    0.0000 HC        1 <0>         0.0000
     45 H24         4.4270    2.5559    0.0000 HC        1 <0>         0.0000
     46 H25         4.4270    2.5559    0.0000 HC        1 <0>         0.0000
     47 H26         5.1414    2.1434    0.0000 HC        1 <0>         0.0000
     48 H27         5.1414    2.1434    0.0000 HC        1 <0>         0.0000
     49 H28         5.8559    2.5559    0.0000 HC        1 <0>         0.0000
     50 H29         5.8559    2.5559    0.0000 HC        1 <0>         0.0000
     51 H30         6.5704    2.1434    0.0000 HC        1 <0>         0.0000
     52 H31         6.5704    2.1434    0.0000 HC        1 <0>         0.0000
     53 H32         7.2849    2.5559    0.0000 HC        1 <0>         0.0000
     54 H33         7.2849    2.5559    0.0000 HC        1 <0>         0.0000
     55 H34         8.7138    2.5559    0.0000 HO        1 <0>         0.0000
@<TRIPOS>BOND
     1    1    2 1
     2    2    3 1
     3    3    4 1
     4    4    5 1
     5    5    6 1
     6    6    7 1
     7    7    8 1
     8    7    9 1
     9    9   10 1
    10   10   11 2
    11   11   12 1
    12   12   13 1
    13   13   14 1
    14   14   15 1
    15   15   16 1
    16   16   17 1
    17   17   18 1
    18   18   19 1
    19   19   20 1
    20   19   21 2
    21    1   22 1
    22    1   23 1
    23    1   24 1
    24    2   25 1
    25    2   26 1
    26    3   27 1
    27    3   28 1
    28    4   29 1
    29    4   30 1
    30    5   31 1
    31    5   32 1
    32    6   33 1
    33    6   34 1
    34    7   35 1
    35    8   36 1
    36    9   37 1
    37    9   38 1
    38   10   39 1
    39   11   40 1
    40   12   41 1
    41   12   42 1
    42   13   43 1
    43   13   44 1
    44   14   45 1
    45   14   46 1
    46   15   47 1
    47   15   48 1
    48   16   49 1
    49   16   50 1
    50   17   51 1
    51   17   52 1
    52   18   53 1
    53   18   54 1
    54   20   55 1
@<TRIPOS>MOLECULE
*****
   23    22     0     0     0
SMALL
NO_CHARGES

@<TRIPOS>ATOM
      1 C1          1.7605    1.8414    0.0000 CT        1 <0>         0.0000
      2 C2          2.4750    1.4289    0.0000 CT        1 <0>         0.0000
      3 O1          2.4750    0.6039    0.0000 OH        1 <0>         0.0000
      4 C3          3.1895    1.8414    0.0000 CT        1 <0>         0.0000
      5 O2          3.1895    2.6664    0.0000 OH        1 <0>         0.0000
      6 C4          3.9039    1.4289    0.0000 CT        1 <0>         0.0000
      7 O3          3.9039    0.6039    0.0000 OH        1 <0>         0.0000
      8 C5          4.6184    1.8414    0.0000 CT        1 <0>         0.0000
      9 O4          4.6184    2.6664    0.0000 OH        1 <0>         0.0000
     10 C6          5.3329    1.4289    0.0000 C         1 <0>         0.0000
     11 O5          6.0474    1.8414    0.0000 O         1 <0>         0.0000
     12 H1          1.7605    1.8414    0.0000 HC        1 <0>         0.0000
     13 H2          1.7605    1.8414    0.0000 HC        1 <0>         0.0000
     14 H3          1.7605    1.8414    0.0000 HC        1 <0>         0.0000
     15 H4          2.4750    1.4289    0.0000 H1        1 <0>         0.0000
     16 H5          2.4750    0.6039    0.0000 HO        1 <0>         0.0000
     17 H6          3.1895    1.8414    0.0000 H1        1 <0>         0.0000
     18 H7          3.1895    2.6664    0.0000 HO        1 <0>         0.0000
     19 H8          3.9039    1.4289    0.0000 H1        1 <0>         0.0000
     20 H9          3.9039    0.6039    0.0000 HO        1 <0>         0.0000
     21 H10         4.6184    1.8414    0.0000 H1        1 <0>         0.0000
     22 H11         4.6184    2.6664    0.0000 HO        1 <0>         0.0000
     23 H12         5.3329    1.4289    0.0000 H4        1 <0>         0.0000
@<TRIPOS>BOND
     1    1    2 1
     2    2    3 1
     3    2    4 1
     4    4    5 1
     5    4    6 1
     6    6    7 1
     7    6    8 1
     8    8    9 1
     9    8   10 1
    10   10   11 2
    11    1   12 1
    12    1   13 1
    13    1   14 1
    14    2   15 1
    15    3   16 1
    16    4   17 1
    17    5   18 1
    18    6   19 1
    19    7   20 1
    20    8   21 1
    21    9   22 1
    22   10   23 1
@<TRIPOS>MOLECULE
*****
   47    46     0     0     0
SMALL
NO_CHARGES

@<TRIPOS>ATOM
      1 C1          2.0921    6.9829    0.0000 CT        1 <0>         0.0000
      2 C2          2.8066    6.5704    0.0000 CT        1 <0>         0.0000
      3 C3          2.8066    5.7454    0.0000 CT        1 <0>         0.0000
      4 C4          3.5211    5.3329    0.0000 CM        1 <0>         0.0000
      5 C5          3.5211    4.5079    0.0000 CM        1 <0>         0.0000
      6 C6          4.2355    4.0954    0.0000 CM        1 <0>         0.0000
      7 C7          4.2355    3.2704    0.0000 CM        1 <0>         0.0000
      8 C8          4.9500    2.8579    0.0000 CT        1 <0>         0.0000
      9 C9          5.6645    3.2704    0.0000 CT        1 <0>         0.0000
     10 C10         6.3789    2.8579    0.0000 CT        1 <0>         0.0000
     11 C11         7.0934    3.2704    0.0000 CT        1 <0>         0.0000
     12 C12         7.8079    2.8579    0.0000 CT        1 <0>         0.0000
     13 C13         8.5224    3.2704    0.0000 CT        1 <0>         0.0000
     14 C14         9.2368    2.8579    0.0000 CT        1 <0>         0.0000
     15 C15         9.9513    3.2704    0.0000 CT        1 <0>         0.0000
     16 C16        10.6658    2.8579    0.0000 CT        1 <0>         0.0000
     17 O1         11.3802    3.2704    0.0000 OH        1 <0>         0.0000
     18 H1          2.0921    6.9829    0.0000 HC        1 <0>         0.0000
     19 H2          2.0921    6.9829    0.0000 HC        1 <0>         0.0000
     20 H3          2.0921    6.9829    0.0000 HC        1 <0>         0.0000
     21 H4          2.8066    6.5704    0.0000 HC        1 <0>         0.0000
     22 H5          2.8066    6.5704    0.0000 HC        1 <0>         0.0000
     23 H6          2.8066    5.7454    0.0000 HC        1 <0>         0.0000
     24 H7          2.8066    5.7454    0.0000 HC        1 <0>         0.0000
     25 H8          3.5211    5.3329    0.0000 HA        1 <0>         0.0000
     26 H9          3.5211    4.5079    0.0000 HA        1 <0>         0.0000
     27 H10         4.2355    4.0954    0.0000 HA        1 <0>         0.0000
     28 H11         4.2355    3.2704    0.0000 HA        1 <0>         0.0000
     29 H12         4.9500    2.8579    0.0000 HC        1 <0>         0.0000
     30 H13         4.9500    2.8579    0.0000 HC        1 <0>         0.0000
     31 H14         5.6645    3.2704    0.0000 HC        1 <0>         0.0000
     32 H15         5.6645    3.2704    0.0000 HC        1 <0>         0.0000
     33 H16         6.3789    2.8579    0.0000 HC        1 <0>         0.0000
     34 H17         6.3789    2.8579    0.0000 HC        1 <0>         0.0000
     35 H18         7.0934    3.2704    0.0000 HC        1 <0>         0.0000
     36 H19         7.0934    3.2704    0.0000 HC        1 <0>         0.0000
     37 H20         7.8079    2.8579    0.0000 HC        1 <0>         0.0000
     38 H21         7.8079    2.8579    0.0000 HC        1 <0>         0.0000
     39 H22         8.5224    3.2704    0.0000 HC        1 <0>         0.0000
     40 H23         8.5224    3.2704    0.0000 HC        1 <0>         0.0000
     41 H24         9.2368    2.8579    0.0000 HC        1 <0>         0.0000
     42 H25         9.2368    2.8579    0.0000 HC        1 <0>         0.0000
     43 H26         9.9513    3.2704    0.0000 HC        1 <0>         0.0000
     44 H27         9.9513    3.2704    0.0000 HC        1 <0>         0.0000
     45 H28        10.6658    2.8579    0.0000 H1        1 <0>         0.0000
     46 H29        10.6658    2.8579    0.0000 H1        1 <0>         0.0000
     47 H30        11.3802    3.2704    0.0000 HO        1 <0>         0.0000
@<TRIPOS>BOND
     1    1    2 1
     2    2    3 1
     3    3    4 1
     4    4    5 2
     5    5    6 1
     6    6    7 2
     7    7    8 1
     8    8    9 1
     9    9   10 1
    10   10   11 1
    11   11   12 1
    12   12   13 1
    13   13   14 1
    14   14   15 1
    15   15   16 1
    16   16   17 1
    17    1   18 1
    18    1   19 1
    19    1   20 1
    20    2   21 1
    21    2   22 1
    22    3   23 1
    23    3   24 1
    24    4   25 1
    25    5   26 1
    26    6   27 1
    27    7   28 1
    28    8   29 1
    29    8   30 1
    30    9   31 1
    31    9   32 1
    32   10   33 1
    33   10   34 1
    34   11   35 1
    35   11   36 1
    36   12   37 1
    37   12   38 1
    38   13   39 1
    39   13   40 1
    40   14   41 1
    41   14   42 1
    42   15   43 1
    43   15   44 1
    44   16   45 1
    45   16   46 1
    46   17   47 1
@<TRIPOS>MOLECULE
R18
   45    48     0     0     0
SMALL
NO_CHARGES

@<TRIPOS>ATOM
      1 C1          1.9235   -0.6389    0.0000 CT        1 <0>         0.0000
      2 C2          2.7356   -0.4937    0.0000 CT        1 <0>         0.0000
      3 C3          3.0159    0.2822    0.0000 C         1 <0>         0.0000
      4 C4          2.4841    0.9129    0.0000 CM        1 <0>         0.0000
      5 C5          1.6720    0.7677    0.0000 CM        1 <0>         0.0000
      6 C6          1.1402    1.3984    0.0000 CT        1 <0>         0.0000
      7 C7          0.3280    1.2532    0.0000 CT        1 <0>         0.0000
      8 C8          0.0477    0.4773    0.0000 CT        1 <0>         0.0000
      9 C9          0.5796   -0.1534    0.0000 CM        1 <0>         0.0000
     10 C10         1.3917   -0.0082    0.0000 CM        1 <0>         0.0000
     11 C11         0.2993   -0.9293    0.0000 CM        1 <0>         0.0000
     12 C12        -0.5129   -1.0746    0.0000 CM        1 <0>         0.0000
     13 C13        -1.0447   -0.4438    0.0000 CT        1 <0>         0.0000
     14 C14        -0.7644    0.3321    0.0000 CT        1 <0>         0.0000
     15 C15        -1.4157    0.8384    0.0000 CT        1 <0>         0.0000
     16 C16        -2.0986    0.3755    0.0000 CT        1 <0>         0.0000
     17 C17        -1.8692   -0.4170    0.0000 CT        1 <0>         0.0000
     18 C18        -1.4045   -1.1862    0.0000 CT        1 <0>         0.0000
     19 C19        -1.9906   -1.2331    0.0000 CT        1 <0>         0.0000
     20 O1          3.8280    0.4274    0.0000 O         1 <0>         0.0000
     21 O2         -2.6301   -0.7359    0.0000 OH        1 <0>         0.0000
     22 H1         -0.3287    0.9237    0.0000 HC        1 <0>         0.0000
     23 H2         -0.6245    0.8990    0.0000 HC        1 <0>         0.0000
     24 H3          1.9235   -0.6389    0.0000 HC        1 <0>         0.0000
     25 H4          1.9235   -0.6389    0.0000 HC        1 <0>         0.0000
     26 H5          2.7356   -0.4937    0.0000 HC        1 <0>         0.0000
     27 H6          2.7356   -0.4937    0.0000 HC        1 <0>         0.0000
     28 H7          2.4841    0.9129    0.0000 HA        1 <0>         0.0000
     29 H8          1.1402    1.3984    0.0000 HC        1 <0>         0.0000
     30 H9          1.1402    1.3984    0.0000 HC        1 <0>         0.0000
     31 H10         0.3280    1.2532    0.0000 HC        1 <0>         0.0000
     32 H11         0.3280    1.2532    0.0000 HC        1 <0>         0.0000
     33 H12         0.2993   -0.9293    0.0000 HA        1 <0>         0.0000
     34 H13        -0.5129   -1.0746    0.0000 HA        1 <0>         0.0000
     35 H14        -1.4157    0.8384    0.0000 HC        1 <0>         0.0000
     36 H15        -1.4157    0.8384    0.0000 HC        1 <0>         0.0000
     37 H16        -2.0986    0.3755    0.0000 HC        1 <0>         0.0000
     38 H17        -2.0986    0.3755    0.0000 HC        1 <0>         0.0000
     39 H18        -1.4045   -1.1862    0.0000 HC        1 <0>         0.0000
     40 H19        -1.4045   -1.1862    0.0000 HC        1 <0>         0.0000
     41 H20        -1.4045   -1.1862    0.0000 HC        1 <0>         0.0000
     42 H21        -1.9906   -1.2331    0.0000 HC        1 <0>         0.0000
     43 H22        -1.9906   -1.2331    0.0000 HC        1 <0>         0.0000
     44 H23        -1.9906   -1.2331    0.0000 HC        1 <0>         0.0000
     45 H24        -2.6301   -0.7359    0.0000 HO        1 <0>         0.0000
@<TRIPOS>BOND
     1    1    2 1
     2    1   10 1
     3    2    3 1
     4    3    4 1
     5    3   20 2
     6    4    5 2
     7    5    6 1
     8    5   10 1
     9    6    7 1
    10    7    8 1
    11    8    9 1
    12    8   14 1
    13    8   22 1
    14    9   10 2
    15    9   11 1
    16   11   12 2
    17   12   13 1
    18   13   14 1
    19   13   17 1
    20   13   18 1
    21   14   15 1
    22   14   23 1
    23   15   16 1
    24   16   17 1
    25   17   19 1
    26   17   21 1
    27    1   24 1
    28    1   25 1
    29    2   26 1
    30    2   27 1
    31    4   28 1
    32    6   29 1
    33    6   30 1
    34    7   31 1
    35    7   32 1
    36   11   33 1
    37   12   34 1
    38   15   35 1
    39   15   36 1
    40   16   37 1
    41   16   38 1
    42   18   39 1
    43   18   40 1
    44   18   41 1
    45   19   42 1
    46   19   43 1
    47   19   44 1
    48   21   45 1
@<TRIPOS>MOLECULE
*****
   96    99     0     0     0
SMALL
NO_CHARGES

@<TRIPOS>ATOM
      1 C1        -12.9064   -3.9341    0.0000 CT        1 <0>         0.0000
      2 C2        -12.1527   -4.2696    0.0000 C         1 <0>         0.0000
      3 O1        -12.0665   -5.0901    0.0000 O         1 <0>         0.0000
      4 O2        -11.4853   -3.7847    0.0000 OS        1 <0>         0.0000
      5 C3        -10.7316   -4.1203    0.0000 CT        1 <0>         0.0000
      6 C4        -10.0641   -3.6354    0.0000 CT        1 <0>         0.0000
      7 C5         -9.3105   -3.9709    0.0000 CT        1 <0>         0.0000
      8 C6         -9.1109   -3.1704    0.0000 CT        1 <0>         0.0000
      9 C7         -8.4875   -4.0285    0.0000 CT        1 <0>         0.0000
     10 C8         -9.2242   -4.7914    0.0000 CM        1 <0>         0.0000
     11 C9         -8.4706   -5.1270    0.0000 C2        1 <0>         0.0000
     12 C10        -7.7169   -5.4625    0.0000 CM        1 <0>         0.0000
     13 C11        -7.0494   -4.9776    0.0000 CM        1 <0>         0.0000
     14 C12        -7.1357   -4.1571    0.0000 CT        1 <0>         0.0000
     15 C13        -6.2958   -5.3131    0.0000 CM        1 <0>         0.0000
     16 C14        -5.6283   -4.8282    0.0000 CM        1 <0>         0.0000
     17 C15        -4.8747   -5.1638    0.0000 CM        1 <0>         0.0000
     18 C16        -4.2072   -4.6789    0.0000 CM        1 <0>         0.0000
     19 C17        -3.4535   -5.0144    0.0000 CM        1 <0>         0.0000
     20 C18        -2.7861   -4.5295    0.0000 CM        1 <0>         0.0000
     21 C19        -2.0324   -4.8651    0.0000 CM        1 <0>         0.0000
     22 C20        -1.9462   -5.6855    0.0000 CT        1 <0>         0.0000
     23 C21        -1.3650   -4.3801    0.0000 CM        1 <0>         0.0000
     24 C22        -1.4512   -3.5596    0.0000 C*        1 <0>         0.0000
     25 O3         -2.1657   -3.1471    0.0000 OS        1 <0>         0.0000
     26 C23        -1.9942   -2.3402    0.0000 C         1 <0>         0.0000
     27 O4         -2.5462   -1.7271    0.0000 O         1 <0>         0.0000
     28 C24        -1.1737   -2.2539    0.0000 CW        1 <0>         0.0000
     29 C25        -0.7612   -1.5395    0.0000 CM        1 <0>         0.0000
     30 C26         0.0638   -1.5395    0.0000 CM        1 <0>         0.0000
     31 C27         0.4763   -0.8250    0.0000 CJ        1 <0>         0.0000
     32 O5         -0.2382   -0.4125    0.0000 OS        1 <0>         0.0000
     33 C28         0.4763    0.0000    0.0000 CJ        1 <0>         0.0000
     34 C29         0.0638    0.7145    0.0000 CT        1 <0>         0.0000
     35 C30         1.1908    0.4125    0.0000 CT        1 <0>         0.0000
     36 C31         1.9053    0.0000    0.0000 CT        1 <0>         0.0000
     37 O6          2.6197    0.4125    0.0000 OH        1 <0>         0.0000
     38 C32         1.9053   -0.8250    0.0000 CT        1 <0>         0.0000
     39 C33         1.1908   -1.2375    0.0000 CT        1 <0>         0.0000
     40 C34         1.5781   -1.9659    0.0000 CT        1 <0>         0.0000
     41 C35         0.8035   -1.9659    0.0000 CT        1 <0>         0.0000
     42 C36        -0.8381   -3.0076    0.0000 CC        1 <0>         0.0000
     43 C37        -9.8917   -5.2763    0.0000 CT        1 <0>         0.0000
     44 C38        -9.2982   -5.8494    0.0000 CT        1 <0>         0.0000
     45 O7        -10.3530   -5.9603    0.0000 OH        1 <0>         0.0000
     46 C39       -10.6453   -4.9408    0.0000 CT        1 <0>         0.0000
     47 H1        -12.9064   -3.9341    0.0000 HC        1 <0>         0.0000
     48 H2        -12.9064   -3.9341    0.0000 HC        1 <0>         0.0000
     49 H3        -12.9064   -3.9341    0.0000 HC        1 <0>         0.0000
     50 H4        -10.7316   -4.1203    0.0000 H1        1 <0>         0.0000
     51 H5        -10.0641   -3.6354    0.0000 HC        1 <0>         0.0000
     52 H6        -10.0641   -3.6354    0.0000 HC        1 <0>         0.0000
     53 H7         -9.1109   -3.1704    0.0000 HC        1 <0>         0.0000
     54 H8         -9.1109   -3.1704    0.0000 HC        1 <0>         0.0000
     55 H9         -9.1109   -3.1704    0.0000 HC        1 <0>         0.0000
     56 H10        -8.4875   -4.0285    0.0000 HC        1 <0>         0.0000
     57 H11        -8.4875   -4.0285    0.0000 HC        1 <0>         0.0000
     58 H12        -8.4875   -4.0285    0.0000 HC        1 <0>         0.0000
     59 H13        -7.7169   -5.4625    0.0000 HA        1 <0>         0.0000
     60 H14        -7.1357   -4.1571    0.0000 HC        1 <0>         0.0000
     61 H15        -7.1357   -4.1571    0.0000 HC        1 <0>         0.0000
     62 H16        -7.1357   -4.1571    0.0000 HC        1 <0>         0.0000
     63 H17        -6.2958   -5.3131    0.0000 HA        1 <0>         0.0000
     64 H18        -5.6283   -4.8282    0.0000 HA        1 <0>         0.0000
     65 H19        -4.8747   -5.1638    0.0000 HA        1 <0>         0.0000
     66 H20        -4.2072   -4.6789    0.0000 HA        1 <0>         0.0000
     67 H21        -3.4535   -5.0144    0.0000 HA        1 <0>         0.0000
     68 H22        -2.7861   -4.5295    0.0000 HA        1 <0>         0.0000
     69 H23        -1.9462   -5.6855    0.0000 HC        1 <0>         0.0000
     70 H24        -1.9462   -5.6855    0.0000 HC        1 <0>         0.0000
     71 H25        -1.9462   -5.6855    0.0000 HC        1 <0>         0.0000
     72 H26        -1.3650   -4.3801    0.0000 HA        1 <0>         0.0000
     73 H27        -0.7612   -1.5395    0.0000 HA        1 <0>         0.0000
     74 H28         0.0638   -1.5395    0.0000 HA        1 <0>         0.0000
     75 H29         0.0638    0.7145    0.0000 HC        1 <0>         0.0000
     76 H30         0.0638    0.7145    0.0000 HC        1 <0>         0.0000
     77 H31         0.0638    0.7145    0.0000 HC        1 <0>         0.0000
     78 H32         1.1908    0.4125    0.0000 HC        1 <0>         0.0000
     79 H33         1.1908    0.4125    0.0000 HC        1 <0>         0.0000
     80 H34         1.9053    0.0000    0.0000 H1        1 <0>         0.0000
     81 H35         2.6197    0.4125    0.0000 HO        1 <0>         0.0000
     82 H36         1.9053   -0.8250    0.0000 HC        1 <0>         0.0000
     83 H37         1.9053   -0.8250    0.0000 HC        1 <0>         0.0000
     84 H38         1.5781   -1.9659    0.0000 HC        1 <0>         0.0000
     85 H39         1.5781   -1.9659    0.0000 HC        1 <0>         0.0000
     86 H40         1.5781   -1.9659    0.0000 HC        1 <0>         0.0000
     87 H41         0.8035   -1.9659    0.0000 HC        1 <0>         0.0000
     88 H42         0.8035   -1.9659    0.0000 HC        1 <0>         0.0000
     89 H43         0.8035   -1.9659    0.0000 HC        1 <0>         0.0000
     90 H44        -0.8381   -3.0076    0.0000 HA        1 <0>         0.0000
     91 H45        -9.2982   -5.8494    0.0000 HC        1 <0>         0.0000
     92 H46        -9.2982   -5.8494    0.0000 HC        1 <0>         0.0000
     93 H47        -9.2982   -5.8494    0.0000 HC        1 <0>         0.0000
     94 H48       -10.3530   -5.9603    0.0000 HO        1 <0>         0.0000
     95 H49       -10.6453   -4.9408    0.0000 HC        1 <0>         0.0000
     96 H50       -10.6453   -4.9408    0.0000 HC        1 <0>         0.0000
@<TRIPOS>BOND
     1    1    2 1
     2    2    3 2
     3    2    4 1
     4    4    5 1
     5    5    6 1
     6    6    7 1
     7    7    8 1
     8    7    9 1
     9    7   10 1
    10   10   11 2
    11   11   12 2
    12   12   13 1
    13   13   14 1
    14   13   15 2
    15   15   16 1
    16   16   17 2
    17   17   18 1
    18   18   19 2
    19   19   20 1
    20   20   21 2
    21   21   22 1
    22   21   23 1
    23   23   24 2
    24   24   25 1
    25   25   26 1
    26   26   27 2
    27   26   28 1
    28   28   29 1
    29   29   30 2
    30   30   31 1
    31   31   32 1
    32   32   33 1
    33   31   33 1
    34   33   34 1
    35   33   35 1
    36   35   36 1
    37   36   37 1
    38   36   38 1
    39   38   39 1
    40   31   39 1
    41   39   40 1
    42   39   41 1
    43   28   42 2
    44   24   42 1
    45   10   43 1
    46   43   44 1
    47   43   45 1
    48   43   46 1
    49    5   46 1
    50    1   47 1
    51    1   48 1
    52    1   49 1
    53    5   50 1
    54    6   51 1
    55    6   52 1
    56    8   53 1
    57    8   54 1
    58    8   55 1
    59    9   56 1
    60    9   57 1
    61    9   58 1
    62   12   59 1
    63   14   60 1
    64   14   61 1
    65   14   62 1
    66   15   63 1
    67   16   64 1
    68   17   65 1
    69   18   66 1
    70   19   67 1
    71   20   68 1
    72   22   69 1
    73   22   70 1
    74   22   71 1
    75   23   72 1
    76   29   73 1
    77   30   74 1
    78   34   75 1
    79   34   76 1
    80   34   77 1
    81   35   78 1
    82   35   79 1
    83   36   80 1
    84   37   81 1
    85   38   82 1
    86   38   83 1
    87   40   84 1
    88   40   85 1
    89   40   86 1
    90   41   87 1
    91   41   88 1
    92   41   89 1
    93   42   90 1
    94   44   91 1
    95   44   92 1
    96   44   93 1
    97   45   94 1
    98   46   95 1
    99   46   96 1
@<TRIPOS>MOLECULE
*****
   49    49     0     0     0
SMALL
NO_CHARGES

@<TRIPOS>ATOM
      1 C1         -4.8476    5.3968    0.0000 CT        1 <0>         0.0000
      2 C2         -4.6761    4.5898    0.0000 CT        1 <0>         0.0000
      3 C3         -3.8915    4.3348    0.0000 CM        1 <0>         0.0000
      4 C4         -3.7200    3.5279    0.0000 CM        1 <0>         0.0000
      5 C5         -2.9353    3.2729    0.0000 CT        1 <0>         0.0000
      6 C6         -2.7638    2.4660    0.0000 CT        1 <0>         0.0000
      7 C7         -2.0101    2.1304    0.0000 CT        1 <0>         0.0000
      8 C8         -1.2957    2.5429    0.0000 CT        1 <0>         0.0000
      9 C9         -0.5812    2.1304    0.0000 CT        1 <0>         0.0000
     10 C10         0.1333    2.5429    0.0000 CT        1 <0>         0.0000
     11 C11         0.8477    2.1304    0.0000 CT        1 <0>         0.0000
     12 C12         1.5622    2.5429    0.0000 CT        1 <0>         0.0000
     13 C13         2.2767    2.1304    0.0000 CT        1 <0>         0.0000
     14 C14         2.9912    2.5429    0.0000 CT        1 <0>         0.0000
     15 C15         3.7056    2.1304    0.0000 C         1 <0>         0.0000
     16 O1          4.4201    2.5429    0.0000 OH        1 <0>         0.0000
     17 O2          3.7056    1.3054    0.0000 O         1 <0>         0.0000
     18 C16        -2.0964    1.3099    0.0000 CM        1 <0>         0.0000
     19 C17        -2.9034    1.1384    0.0000 CM        1 <0>         0.0000
     20 C18        -3.3159    1.8529    0.0000 C         1 <0>         0.0000
     21 O3         -4.1363    1.9391    0.0000 O         1 <0>         0.0000
     22 H1         -4.8476    5.3968    0.0000 HC        1 <0>         0.0000
     23 H2         -4.8476    5.3968    0.0000 HC        1 <0>         0.0000
     24 H3         -4.8476    5.3968    0.0000 HC        1 <0>         0.0000
     25 H4         -4.6761    4.5898    0.0000 HC        1 <0>         0.0000
     26 H5         -4.6761    4.5898    0.0000 HC        1 <0>         0.0000
     27 H6         -3.8915    4.3348    0.0000 HA        1 <0>         0.0000
     28 H7         -3.7200    3.5279    0.0000 HA        1 <0>         0.0000
     29 H8         -2.9353    3.2729    0.0000 HC        1 <0>         0.0000
     30 H9         -2.9353    3.2729    0.0000 HC        1 <0>         0.0000
     31 H10        -2.7638    2.4660    0.0000 HC        1 <0>         0.0000
     32 H11        -2.0101    2.1304    0.0000 HC        1 <0>         0.0000
     33 H12        -1.2957    2.5429    0.0000 HC        1 <0>         0.0000
     34 H13        -1.2957    2.5429    0.0000 HC        1 <0>         0.0000
     35 H14        -0.5812    2.1304    0.0000 HC        1 <0>         0.0000
     36 H15        -0.5812    2.1304    0.0000 HC        1 <0>         0.0000
     37 H16         0.1333    2.5429    0.0000 HC        1 <0>         0.0000
     38 H17         0.1333    2.5429    0.0000 HC        1 <0>         0.0000
     39 H18         0.8477    2.1304    0.0000 HC        1 <0>         0.0000
     40 H19         0.8477    2.1304    0.0000 HC        1 <0>         0.0000
     41 H20         1.5622    2.5429    0.0000 HC        1 <0>         0.0000
     42 H21         1.5622    2.5429    0.0000 HC        1 <0>         0.0000
     43 H22         2.2767    2.1304    0.0000 HC        1 <0>         0.0000
     44 H23         2.2767    2.1304    0.0000 HC        1 <0>         0.0000
     45 H24         2.9912    2.5429    0.0000 HC        1 <0>         0.0000
     46 H25         2.9912    2.5429    0.0000 HC        1 <0>         0.0000
     47 H26         4.4201    2.5429    0.0000 HO        1 <0>         0.0000
     48 H27        -2.0964    1.3099    0.0000 HA        1 <0>         0.0000
     49 H28        -2.9034    1.1384    0.0000 HA        1 <0>         0.0000
@<TRIPOS>BOND
     1    1    2 1
     2    2    3 1
     3    3    4 2
     4    4    5 1
     5    5    6 1
     6    6    7 1
     7    7    8 1
     8    8    9 1
     9    9   10 1
    10   10   11 1
    11   11   12 1
    12   12   13 1
    13   13   14 1
    14   14   15 1
    15   15   16 1
    16   15   17 2
    17    7   18 1
    18   18   19 2
    19   19   20 1
    20    6   20 1
    21   20   21 2
    22    1   22 1
    23    1   23 1
    24    1   24 1
    25    2   25 1
    26    2   26 1
    27    3   27 1
    28    4   28 1
    29    5   29 1
    30    5   30 1
    31    6   31 1
    32    7   32 1
    33    8   33 1
    34    8   34 1
    35    9   35 1
    36    9   36 1
    37   10   37 1
    38   10   38 1
    39   11   39 1
    40   11   40 1
    41   12   41 1
    42   12   42 1
    43   13   43 1
    44   13   44 1
    45   14   45 1
    46   14   46 1
    47   16   47 1
    48   18   48 1
    49   19   49 1
@<TRIPOS>MOLECULE
*****
   25    24     0     0     0
SMALL
NO_CHARGES

@<TRIPOS>ATOM
      1 C1          1.0461    1.4289    0.0000 CT        1 <0>         0.0000
      2 C2          1.7605    1.8414    0.0000 CT        1 <0>         0.0000
      3 C3          2.4750    1.4289    0.0000 CT        1 <0>         0.0000
      4 C4          3.1895    1.8414    0.0000 CT        1 <0>         0.0000
      5 C5          3.9039    1.4289    0.0000 CT        1 <0>         0.0000
      6 C6          4.6184    1.8414    0.0000 CT        1 <0>         0.0000
      7 O1          4.6184    2.6664    0.0000 OH        1 <0>         0.0000
      8 C7          5.3329    1.4289    0.0000 CM        1 <0>         0.0000
      9 C8          6.0474    1.8414    0.0000 CM        1 <0>         0.0000
     10 H1          1.0461    1.4289    0.0000 HC        1 <0>         0.0000
     11 H2          1.0461    1.4289    0.0000 HC        1 <0>         0.0000
     12 H3          1.0461    1.4289    0.0000 HC        1 <0>         0.0000
     13 H4          1.7605    1.8414    0.0000 HC        1 <0>         0.0000
     14 H5          1.7605    1.8414    0.0000 HC        1 <0>         0.0000
     15 H6          2.4750    1.4289    0.0000 HC        1 <0>         0.0000
     16 H7          2.4750    1.4289    0.0000 HC        1 <0>         0.0000
     17 H8          3.1895    1.8414    0.0000 HC        1 <0>         0.0000
     18 H9          3.1895    1.8414    0.0000 HC        1 <0>         0.0000
     19 H10         3.9039    1.4289    0.0000 HC        1 <0>         0.0000
     20 H11         3.9039    1.4289    0.0000 HC        1 <0>         0.0000
     21 H12         4.6184    1.8414    0.0000 H1        1 <0>         0.0000
     22 H13         4.6184    2.6664    0.0000 HO        1 <0>         0.0000
     23 H14         5.3329    1.4289    0.0000 HA        1 <0>         0.0000
     24 H15         6.0474    1.8414    0.0000 HA        1 <0>         0.0000
     25 H16         6.0474    1.8414    0.0000 HA        1 <0>         0.0000
@<TRIPOS>BOND
     1    1    2 1
     2    2    3 1
     3    3    4 1
     4    4    5 1
     5    5    6 1
     6    6    7 1
     7    6    8 1
     8    8    9 2
     9    1   10 1
    10    1   11 1
    11    1   12 1
    12    2   13 1
    13    2   14 1
    14    3   15 1
    15    3   16 1
    16    4   17 1
    17    4   18 1
    18    5   19 1
    19    5   20 1
    20    6   21 1
    21    7   22 1
    22    8   23 1
    23    9   24 1
    24    9   25 1
@<TRIPOS>MOLECULE
OAL
   32    34     0     0     0
SMALL
NO_CHARGES

@<TRIPOS>ATOM
      1 C1          2.6931   -0.8799    0.0000 CA        1 <0>         0.0000
      2 C2          1.9786   -1.2924    0.0000 CA        1 <0>         0.0000
      3 C3          1.2641   -0.8799    0.0000 CB        1 <0>         0.0000
      4 C4          1.2641   -0.0549    0.0000 CB        1 <0>         0.0000
      5 C5          1.9786    0.3576    0.0000 CA        1 <0>         0.0000
      6 C6          2.6931   -0.0549    0.0000 CA        1 <0>         0.0000
      7 C7          0.5496    0.3576    0.0000 C         1 <0>         0.0000
      8 C8         -0.1648   -0.0549    0.0000 CB        1 <0>         0.0000
      9 C9         -0.1648   -0.8799    0.0000 CB        1 <0>         0.0000
     10 C10         0.5496   -1.2924    0.0000 C         1 <0>         0.0000
     11 C11        -0.8793    0.3576    0.0000 CA        1 <0>         0.0000
     12 C12        -1.5938   -0.0549    0.0000 CA        1 <0>         0.0000
     13 C13        -1.5938   -0.8799    0.0000 CA        1 <0>         0.0000
     14 C14        -0.8793   -1.2924    0.0000 CA        1 <0>         0.0000
     15 C15        -2.3082    0.3576    0.0000 CT        1 <0>         0.0000
     16 C16        -2.3082    1.1826    0.0000 C         1 <0>         0.0000
     17 O1          1.9786    1.1826    0.0000 OH        1 <0>         0.0000
     18 O2          0.5496    1.1826    0.0000 O         1 <0>         0.0000
     19 O3         -0.8793    1.1826    0.0000 OH        1 <0>         0.0000
     20 O4         -3.0227    1.5951    0.0000 O         1 <0>         0.0000
     21 O5         -1.5938    1.5951    0.0000 OH        1 <0>         0.0000
     22 O6          0.5496   -2.1174    0.0000 O         1 <0>         0.0000
     23 H1          2.6931   -0.8799    0.0000 HA        1 <0>         0.0000
     24 H2          1.9786   -1.2924    0.0000 HA        1 <0>         0.0000
     25 H3          2.6931   -0.0549    0.0000 HA        1 <0>         0.0000
     26 H4         -1.5938   -0.8799    0.0000 HA        1 <0>         0.0000
     27 H5         -0.8793   -1.2924    0.0000 HA        1 <0>         0.0000
     28 H6         -2.3082    0.3576    0.0000 HC        1 <0>         0.0000
     29 H7         -2.3082    0.3576    0.0000 HC        1 <0>         0.0000
     30 H8          1.9786    1.1826    0.0000 HO        1 <0>         0.0000
     31 H9         -0.8793    1.1826    0.0000 HO        1 <0>         0.0000
     32 H10        -1.5938    1.5951    0.0000 HO        1 <0>         0.0000
@<TRIPOS>BOND
     1    1    2 ar
     2    1    6 ar
     3    2    3 ar
     4    3    4 ar
     5    3   10 1
     6    4    5 ar
     7    4    7 1
     8    5    6 ar
     9    5   17 1
    10    7    8 1
    11    7   18 2
    12    8    9 ar
    13    8   11 ar
    14    9   10 1
    15    9   14 ar
    16   10   22 2
    17   11   12 ar
    18   11   19 1
    19   12   13 ar
    20   12   15 1
    21   13   14 ar
    22   15   16 1
    23   16   20 2
    24   16   21 1
    25    1   23 1
    26    2   24 1
    27    6   25 1
    28   13   26 1
    29   14   27 1
    30   15   28 1
    31   15   29 1
    32   17   30 1
    33   19   31 1
    34   21   32 1
@<TRIPOS>MOLECULE
*****
   16    16     0     0     0
SMALL
NO_CHARGES

@<TRIPOS>ATOM
      1 O1         -0.1467    2.3518    0.0000 OH        1 <0>         0.0000
      2 C1          0.5678    1.9393    0.0000 C         1 <0>         0.0000
      3 O2          1.2822    2.3518    0.0000 O         1 <0>         0.0000
      4 C2          0.5678    1.1143    0.0000 CT        1 <0>         0.0000
      5 C3          1.2352    0.6294    0.0000 CT        1 <0>         0.0000
      6 C4          0.9803   -0.1553    0.0000 CT        1 <0>         0.0000
      7 C5          0.1553   -0.1553    0.0000 CT        1 <0>         0.0000
      8 O3         -0.0997    0.6294    0.0000 OS        1 <0>         0.0000
      9 H1         -0.1467    2.3518    0.0000 HO        1 <0>         0.0000
     10 H2          0.5678    1.1143    0.0000 H1        1 <0>         0.0000
     11 H3          1.2352    0.6294    0.0000 HC        1 <0>         0.0000
     12 H4          1.2352    0.6294    0.0000 HC        1 <0>         0.0000
     13 H5          0.9803   -0.1553    0.0000 HC        1 <0>         0.0000
     14 H6          0.9803   -0.1553    0.0000 HC        1 <0>         0.0000
     15 H7          0.1553   -0.1553    0.0000 H1        1 <0>         0.0000
     16 H8          0.1553   -0.1553    0.0000 H1        1 <0>         0.0000
@<TRIPOS>BOND
     1    1    2 1
     2    2    3 2
     3    2    4 1
     4    4    5 1
     5    5    6 1
     6    6    7 1
     7    7    8 1
     8    4    8 1
     9    1    9 1
    10    4   10 1
    11    5   11 1
    12    5   12 1
    13    6   13 1
    14    6   14 1
    15    7   15 1
    16    7   16 1
@<TRIPOS>MOLECULE
*****
    9     8     0     0     0
SMALL
NO_CHARGES

@<TRIPOS>ATOM
      1 O1          2.4750   -1.4289    0.0000 O         1 <0>         0.0000
      2 C1          2.0625   -0.7145    0.0000 C         1 <0>         0.0000
      3 C2          1.2375   -0.7145    0.0000 CT        1 <0>         0.0000
      4 C3          0.8250    0.0000    0.0000 C         1 <0>         0.0000
      5 O2          0.0000    0.0000    0.0000 O         1 <0>         0.0000
      6 H1          2.0625   -0.7145    0.0000 H4        1 <0>         0.0000
      7 H2          1.2375   -0.7145    0.0000 HC        1 <0>         0.0000
      8 H3          1.2375   -0.7145    0.0000 HC        1 <0>         0.0000
      9 H4          0.8250    0.0000    0.0000 H4        1 <0>         0.0000
@<TRIPOS>BOND
     1    1    2 2
     2    2    3 1
     3    3    4 1
     4    4    5 2
     5    2    6 1
     6    3    7 1
     7    3    8 1
     8    4    9 1
@<TRIPOS>MOLECULE
*****
   12    11     0     0     0
SMALL
NO_CHARGES

@<TRIPOS>ATOM
      1 C1          0.8250    1.4289    0.0000 CT        1 <0>         0.0000
      2 C2          1.2375    0.7145    0.0000 CT        1 <0>         0.0000
      3 O1          2.0625    0.7145    0.0000 OH        1 <0>         0.0000
      4 C3          0.8250    0.0000    0.0000 C         1 <0>         0.0000
      5 O2          1.2375   -0.7145    0.0000 OH        1 <0>         0.0000
      6 O3          0.0000    0.0000    0.0000 O         1 <0>         0.0000
      7 H1          0.8250    1.4289    0.0000 HC        1 <0>         0.0000
      8 H2          0.8250    1.4289    0.0000 HC        1 <0>         0.0000
      9 H3          0.8250    1.4289    0.0000 HC        1 <0>         0.0000
     10 H4          1.2375    0.7145    0.0000 H1        1 <0>         0.0000
     11 H5          2.0625    0.7145    0.0000 HO        1 <0>         0.0000
     12 H6          1.2375   -0.7145    0.0000 HO        1 <0>         0.0000
@<TRIPOS>BOND
     1    1    2 1
     2    2    3 1
     3    2    4 1
     4    4    5 1
     5    4    6 2
     6    1    7 1
     7    1    8 1
     8    1    9 1
     9    2   10 1
    10    3   11 1
    11    5   12 1
@<TRIPOS>MOLECULE
*****
    9     8     0     0     0
SMALL
NO_CHARGES

@<TRIPOS>ATOM
      1 O1          0.8250    1.4289    0.0000 OH        1 <0>         0.0000
      2 C1          1.2375    0.7145    0.0000 CT        1 <0>         0.0000
      3 C2          0.8250    0.0000    0.0000 C         1 <0>         0.0000
      4 O2          1.2375   -0.7145    0.0000 OH        1 <0>         0.0000
      5 O3          0.0000    0.0000    0.0000 O         1 <0>         0.0000
      6 H1          0.8250    1.4289    0.0000 HO        1 <0>         0.0000
      7 H2          1.2375    0.7145    0.0000 H1        1 <0>         0.0000
      8 H3          1.2375    0.7145    0.0000 H1        1 <0>         0.0000
      9 H4          1.2375   -0.7145    0.0000 HO        1 <0>         0.0000
@<TRIPOS>BOND
     1    1    2 1
     2    2    3 1
     3    3    4 1
     4    3    5 2
     5    1    6 1
     6    2    7 1
     7    2    8 1
     8    4    9 1
@<TRIPOS>MOLECULE
*****
   24    24     0     0     0
SMALL
NO_CHARGES

@<TRIPOS>ATOM
      1 O1          2.1434    2.0625    0.0000 OH        1 <0>         0.0000
      2 C1          2.1434    1.2375    0.0000 CT        1 <0>         0.0000
      3 C2          1.4289    0.8250    0.0000 CM        1 <0>         0.0000
      4 C3          1.4289    0.0000    0.0000 CM        1 <0>         0.0000
      5 C4          0.7145   -0.4125    0.0000 CT        1 <0>         0.0000
      6 O2          0.7145   -1.2375    0.0000 OH        1 <0>         0.0000
      7 C5          0.0000    0.0000    0.0000 CT        1 <0>         0.0000
      8 O3         -0.7145   -0.4125    0.0000 OH        1 <0>         0.0000
      9 C6          0.0000    0.8250    0.0000 CT        1 <0>         0.0000
     10 O4         -0.7145    1.2375    0.0000 OH        1 <0>         0.0000
     11 C7          0.7145    1.2375    0.0000 CT        1 <0>         0.0000
     12 O5          0.7145    2.0625    0.0000 OH        1 <0>         0.0000
     13 H1          2.1434    2.0625    0.0000 HO        1 <0>         0.0000
     14 H2          2.1434    1.2375    0.0000 H1        1 <0>         0.0000
     15 H3          2.1434    1.2375    0.0000 H1        1 <0>         0.0000
     16 H4          1.4289    0.0000    0.0000 HA        1 <0>         0.0000
     17 H5          0.7145   -0.4125    0.0000 H1        1 <0>         0.0000
     18 H6          0.7145   -1.2375    0.0000 HO        1 <0>         0.0000
     19 H7          0.0000    0.0000    0.0000 H1        1 <0>         0.0000
     20 H8         -0.7145   -0.4125    0.0000 HO        1 <0>         0.0000
     21 H9          0.0000    0.8250    0.0000 H1        1 <0>         0.0000
     22 H10        -0.7145    1.2375    0.0000 HO        1 <0>         0.0000
     23 H11         0.7145    1.2375    0.0000 H1        1 <0>         0.0000
     24 H12         0.7145    2.0625    0.0000 HO        1 <0>         0.0000
@<TRIPOS>BOND
     1    1    2 1
     2    2    3 1
     3    3    4 2
     4    4    5 1
     5    5    6 1
     6    5    7 1
     7    7    8 1
     8    7    9 1
     9    9   10 1
    10    9   11 1
    11    3   11 1
    12   11   12 1
    13    1   13 1
    14    2   14 1
    15    2   15 1
    16    4   16 1
    17    5   17 1
    18    6   18 1
    19    7   19 1
    20    8   20 1
    21    9   21 1
    22   10   22 1
    23   11   23 1
    24   12   24 1
@<TRIPOS>MOLECULE
*****
   24    24     0     0     0
SMALL
NO_CHARGES

@<TRIPOS>ATOM
      1 O1          2.1434    1.2375    0.0000 OH        1 <0>         0.0000
      2 C1          1.4289    0.8250    0.0000 CT        1 <0>         0.0000
      3 C2          1.4289    0.0000    0.0000 CT        1 <0>         0.0000
      4 O2          2.1434   -0.4125    0.0000 OH        1 <0>         0.0000
      5 C3          0.7145   -0.4125    0.0000 CT        1 <0>         0.0000
      6 O3          0.7145   -1.2375    0.0000 OH        1 <0>         0.0000
      7 C4          0.0000    0.0000    0.0000 CT        1 <0>         0.0000
      8 O4         -0.7145   -0.4125    0.0000 OH        1 <0>         0.0000
      9 C5          0.0000    0.8250    0.0000 CT        1 <0>         0.0000
     10 O5         -0.7145    1.2375    0.0000 OH        1 <0>         0.0000
     11 C6          0.7145    1.2375    0.0000 CT        1 <0>         0.0000
     12 O6          0.7145    2.0625    0.0000 OH        1 <0>         0.0000
     13 H1          2.1434    1.2375    0.0000 HO        1 <0>         0.0000
     14 H2          1.4289    0.8250    0.0000 H1        1 <0>         0.0000
     15 H3          1.4289    0.0000    0.0000 H1        1 <0>         0.0000
     16 H4          2.1434   -0.4125    0.0000 HO        1 <0>         0.0000
     17 H5          0.7145   -0.4125    0.0000 H1        1 <0>         0.0000
     18 H6          0.7145   -1.2375    0.0000 HO        1 <0>         0.0000
     19 H7          0.0000    0.0000    0.0000 H1        1 <0>         0.0000
     20 H8         -0.7145   -0.4125    0.0000 HO        1 <0>         0.0000
     21 H9          0.0000    0.8250    0.0000 H1        1 <0>         0.0000
     22 H10        -0.7145    1.2375    0.0000 HO        1 <0>         0.0000
     23 H11         0.7145    1.2375    0.0000 H1        1 <0>         0.0000
     24 H12         0.7145    2.0625    0.0000 HO        1 <0>         0.0000
@<TRIPOS>BOND
     1    1    2 1
     2    2    3 1
     3    3    4 1
     4    3    5 1
     5    5    6 1
     6    5    7 1
     7    7    8 1
     8    7    9 1
     9    9   10 1
    10    9   11 1
    11    2   11 1
    12   11   12 1
    13    1   13 1
    14    2   14 1
    15    3   15 1
    16    4   16 1
    17    5   17 1
    18    6   18 1
    19    7   19 1
    20    8   20 1
    21    9   21 1
    22   10   22 1
    23   11   23 1
    24   12   24 1
@<TRIPOS>MOLECULE
*****
   20    20     0     0     0
SMALL
NO_CHARGES

@<TRIPOS>ATOM
      1 O1         -1.8897   -0.2077    0.0000 OH        1 <0>         0.0000
      2 C1         -1.2766    0.3443    0.0000 CT        1 <0>         0.0000
      3 C2         -0.4920    0.0894    0.0000 CT        1 <0>         0.0000
      4 O2          0.1754    0.5743    0.0000 OS        1 <0>         0.0000
      5 C3          0.8429    0.0894    0.0000 CT        1 <0>         0.0000
      6 O3          1.6275    0.3443    0.0000 OH        1 <0>         0.0000
      7 C4          0.5879   -0.6952    0.0000 CT        1 <0>         0.0000
      8 O4          1.0729   -1.3627    0.0000 OH        1 <0>         0.0000
      9 C5         -0.2371   -0.6952    0.0000 CT        1 <0>         0.0000
     10 O5         -0.7220   -1.3627    0.0000 OH        1 <0>         0.0000
     11 H1         -1.8897   -0.2077    0.0000 HO        1 <0>         0.0000
     12 H2         -1.2766    0.3443    0.0000 H1        1 <0>         0.0000
     13 H3         -1.2766    0.3443    0.0000 H1        1 <0>         0.0000
     14 H4         -0.4920    0.0894    0.0000 H1        1 <0>         0.0000
     15 H5          0.8429    0.0894    0.0000 H2        1 <0>         0.0000
     16 H6          1.6275    0.3443    0.0000 HO        1 <0>         0.0000
     17 H7          0.5879   -0.6952    0.0000 H1        1 <0>         0.0000
     18 H8          1.0729   -1.3627    0.0000 HO        1 <0>         0.0000
     19 H9         -0.2371   -0.6952    0.0000 H1        1 <0>         0.0000
     20 H10        -0.7220   -1.3627    0.0000 HO        1 <0>         0.0000
@<TRIPOS>BOND
     1    1    2 1
     2    2    3 1
     3    3    4 1
     4    4    5 1
     5    5    6 1
     6    5    7 1
     7    7    8 1
     8    7    9 1
     9    3    9 1
    10    9   10 1
    11    1   11 1
    12    2   12 1
    13    2   13 1
    14    3   14 1
    15    5   15 1
    16    6   16 1
    17    7   17 1
    18    8   18 1
    19    9   19 1
    20   10   20 1
@<TRIPOS>MOLECULE
*****
   30    29     0     0     0
SMALL
NO_CHARGES

@<TRIPOS>ATOM
      1 C1          2.2836    2.1434    0.0000 CT        1 <0>         0.0000
      2 C2          2.9980    2.5559    0.0000 CT        1 <0>         0.0000
      3 C3          3.7125    2.1434    0.0000 CT        1 <0>         0.0000
      4 C4          4.4270    2.5559    0.0000 CT        1 <0>         0.0000
      5 C5          5.1414    2.1434    0.0000 CT        1 <0>         0.0000
      6 C6          5.8559    2.5559    0.0000 CT        1 <0>         0.0000
      7 C7          6.5704    2.1434    0.0000 CT        1 <0>         0.0000
      8 C8          7.2849    2.5559    0.0000 CT        1 <0>         0.0000
      9 C9          7.9993    2.1434    0.0000 CT        1 <0>         0.0000
     10 O1          8.7138    2.5559    0.0000 OH        1 <0>         0.0000
     11 H1          2.2836    2.1434    0.0000 HC        1 <0>         0.0000
     12 H2          2.2836    2.1434    0.0000 HC        1 <0>         0.0000
     13 H3          2.2836    2.1434    0.0000 HC        1 <0>         0.0000
     14 H4          2.9980    2.5559    0.0000 HC        1 <0>         0.0000
     15 H5          2.9980    2.5559    0.0000 HC        1 <0>         0.0000
     16 H6          3.7125    2.1434    0.0000 HC        1 <0>         0.0000
     17 H7          3.7125    2.1434    0.0000 HC        1 <0>         0.0000
     18 H8          4.4270    2.5559    0.0000 HC        1 <0>         0.0000
     19 H9          4.4270    2.5559    0.0000 HC        1 <0>         0.0000
     20 H10         5.1414    2.1434    0.0000 HC        1 <0>         0.0000
     21 H11         5.1414    2.1434    0.0000 HC        1 <0>         0.0000
     22 H12         5.8559    2.5559    0.0000 HC        1 <0>         0.0000
     23 H13         5.8559    2.5559    0.0000 HC        1 <0>         0.0000
     24 H14         6.5704    2.1434    0.0000 HC        1 <0>         0.0000
     25 H15         6.5704    2.1434    0.0000 HC        1 <0>         0.0000
     26 H16         7.2849    2.5559    0.0000 HC        1 <0>         0.0000
     27 H17         7.2849    2.5559    0.0000 HC        1 <0>         0.0000
     28 H18         7.9993    2.1434    0.0000 H1        1 <0>         0.0000
     29 H19         7.9993    2.1434    0.0000 H1        1 <0>         0.0000
     30 H20         8.7138    2.5559    0.0000 HO        1 <0>         0.0000
@<TRIPOS>BOND
     1    1    2 1
     2    2    3 1
     3    3    4 1
     4    4    5 1
     5    5    6 1
     6    6    7 1
     7    7    8 1
     8    8    9 1
     9    9   10 1
    10    1   11 1
    11    1   12 1
    12    1   13 1
    13    2   14 1
    14    2   15 1
    15    3   16 1
    16    3   17 1
    17    4   18 1
    18    4   19 1
    19    5   20 1
    20    5   21 1
    21    6   22 1
    22    6   23 1
    23    7   24 1
    24    7   25 1
    25    8   26 1
    26    8   27 1
    27    9   28 1
    28    9   29 1
    29   10   30 1
@<TRIPOS>MOLECULE
BGL
   48    48     0     0     0
SMALL
NO_CHARGES

@<TRIPOS>ATOM
      1 C1         -2.4337    0.6377    0.0000 CT        1 <0>         0.0000
      2 O1         -2.4337    1.4628    0.0000 OH        1 <0>         0.0000
      3 C2         -1.7192    0.2253    0.0000 CT        1 <0>         0.0000
      4 O2         -1.0048    0.6377    0.0000 OS        1 <0>         0.0000
      5 C3         -1.7192   -0.5996    0.0000 CT        1 <0>         0.0000
      6 O3         -1.0048   -1.0122    0.0000 OH        1 <0>         0.0000
      7 C4         -2.4337   -1.0122    0.0000 CT        1 <0>         0.0000
      8 O4         -2.4337   -1.8371    0.0000 OH        1 <0>         0.0000
      9 C5         -3.1481   -0.5996    0.0000 CT        1 <0>         0.0000
     10 O5         -3.1481    0.2253    0.0000 OS        1 <0>         0.0000
     11 C6         -3.8626   -1.0122    0.0000 CT        1 <0>         0.0000
     12 O6         -4.5770   -0.5996    0.0000 OH        1 <0>         0.0000
     13 C7         -0.2903    0.2253    0.0000 CT        1 <0>         0.0000
     14 C8          0.4241    0.6377    0.0000 CT        1 <0>         0.0000
     15 C9          1.1386    0.2253    0.0000 CT        1 <0>         0.0000
     16 C10         1.8530    0.6377    0.0000 CT        1 <0>         0.0000
     17 C11         2.5676    0.2253    0.0000 CT        1 <0>         0.0000
     18 C12         3.2819    0.6377    0.0000 CT        1 <0>         0.0000
     19 C13         3.9964    0.2253    0.0000 CT        1 <0>         0.0000
     20 C14         4.7110    0.6377    0.0000 CT        1 <0>         0.0000
     21 H1         -2.0584    1.0851    0.0000 H2        1 <0>         0.0000
     22 H2         -1.5195    0.7740    0.0000 H1        1 <0>         0.0000
     23 H3         -1.2136   -0.3077    0.0000 H1        1 <0>         0.0000
     24 H4         -1.9279   -1.3042    0.0000 H1        1 <0>         0.0000
     25 H5         -3.1481   -1.1836    0.0000 H1        1 <0>         0.0000
     26 H6         -2.4337    1.4628    0.0000 HO        1 <0>         0.0000
     27 H7         -1.0048   -1.0122    0.0000 HO        1 <0>         0.0000
     28 H8         -2.4337   -1.8371    0.0000 HO        1 <0>         0.0000
     29 H9         -3.8626   -1.0122    0.0000 H1        1 <0>         0.0000
     30 H10        -3.8626   -1.0122    0.0000 H1        1 <0>         0.0000
     31 H11        -4.5770   -0.5996    0.0000 HO        1 <0>         0.0000
     32 H12        -0.2903    0.2253    0.0000 H1        1 <0>         0.0000
     33 H13        -0.2903    0.2253    0.0000 H1        1 <0>         0.0000
     34 H14         0.4241    0.6377    0.0000 HC        1 <0>         0.0000
     35 H15         0.4241    0.6377    0.0000 HC        1 <0>         0.0000
     36 H16         1.1386    0.2253    0.0000 HC        1 <0>         0.0000
     37 H17         1.1386    0.2253    0.0000 HC        1 <0>         0.0000
     38 H18         1.8530    0.6377    0.0000 HC        1 <0>         0.0000
     39 H19         1.8530    0.6377    0.0000 HC        1 <0>         0.0000
     40 H20         2.5676    0.2253    0.0000 HC        1 <0>         0.0000
     41 H21         2.5676    0.2253    0.0000 HC        1 <0>         0.0000
     42 H22         3.2819    0.6377    0.0000 HC        1 <0>         0.0000
     43 H23         3.2819    0.6377    0.0000 HC        1 <0>         0.0000
     44 H24         3.9964    0.2253    0.0000 HC        1 <0>         0.0000
     45 H25         3.9964    0.2253    0.0000 HC        1 <0>         0.0000
     46 H26         4.7110    0.6377    0.0000 HC        1 <0>         0.0000
     47 H27         4.7110    0.6377    0.0000 HC        1 <0>         0.0000
     48 H28         4.7110    0.6377    0.0000 HC        1 <0>         0.0000
@<TRIPOS>BOND
     1    1    2 1
     2    1    3 1
     3    1   10 1
     4    1   21 1
     5    3    4 1
     6    3    5 1
     7    3   22 1
     8    4   13 1
     9    5    6 1
    10    5    7 1
    11    5   23 1
    12    7    8 1
    13    7    9 1
    14    7   24 1
    15    9   10 1
    16    9   11 1
    17    9   25 1
    18   11   12 1
    19   13   14 1
    20   14   15 1
    21   15   16 1
    22   16   17 1
    23   17   18 1
    24   18   19 1
    25   19   20 1
    26    2   26 1
    27    6   27 1
    28    8   28 1
    29   11   29 1
    30   11   30 1
    31   12   31 1
    32   13   32 1
    33   13   33 1
    34   14   34 1
    35   14   35 1
    36   15   36 1
    37   15   37 1
    38   16   38 1
    39   16   39 1
    40   17   40 1
    41   17   41 1
    42   18   42 1
    43   18   43 1
    44   19   44 1
    45   19   45 1
    46   20   46 1
    47   20   47 1
    48   20   48 1
@<TRIPOS>MOLECULE
*****
   23    23     0     0     0
SMALL
NO_CHARGES

@<TRIPOS>ATOM
      1 O1          2.1434    1.2375    0.0000 OH        1 <0>         0.0000
      2 C1          1.4289    0.8250    0.0000 CT        1 <0>         0.0000
      3 O2          1.4289    0.0000    0.0000 OS        1 <0>         0.0000
      4 C2          0.7145   -0.4125    0.0000 CT        1 <0>         0.0000
      5 C3          0.0000    0.0000    0.0000 CT        1 <0>         0.0000
      6 O3         -0.7145   -0.4125    0.0000 OH        1 <0>         0.0000
      7 C4          0.0000    0.8250    0.0000 CT        1 <0>         0.0000
      8 O4         -0.7145    1.2375    0.0000 OH        1 <0>         0.0000
      9 C5          0.7145    1.2375    0.0000 CT        1 <0>         0.0000
     10 O5          0.7145    2.0625    0.0000 OH        1 <0>         0.0000
     11 C6          0.7145   -1.2375    0.0000 C         1 <0>         0.0000
     12 O6          1.4289   -1.6500    0.0000 OH        1 <0>         0.0000
     13 O7          0.0000   -1.6500    0.0000 O         1 <0>         0.0000
     14 H1          2.1434    1.2375    0.0000 HO        1 <0>         0.0000
     15 H2          1.4289    0.8250    0.0000 H2        1 <0>         0.0000
     16 H3          0.7145   -0.4125    0.0000 H1        1 <0>         0.0000
     17 H4          0.0000    0.0000    0.0000 H1        1 <0>         0.0000
     18 H5         -0.7145   -0.4125    0.0000 HO        1 <0>         0.0000
     19 H6          0.0000    0.8250    0.0000 H1        1 <0>         0.0000
     20 H7         -0.7145    1.2375    0.0000 HO        1 <0>         0.0000
     21 H8          0.7145    1.2375    0.0000 H1        1 <0>         0.0000
     22 H9          0.7145    2.0625    0.0000 HO        1 <0>         0.0000
     23 H10         1.4289   -1.6500    0.0000 HO        1 <0>         0.0000
@<TRIPOS>BOND
     1    1    2 1
     2    2    3 1
     3    3    4 1
     4    4    5 1
     5    5    6 1
     6    5    7 1
     7    7    8 1
     8    7    9 1
     9    2    9 1
    10    9   10 1
    11    4   11 1
    12   11   12 1
    13   11   13 2
    14    1   14 1
    15    2   15 1
    16    4   16 1
    17    5   17 1
    18    6   18 1
    19    7   19 1
    20    8   20 1
    21    9   21 1
    22   10   22 1
    23   12   23 1
@<TRIPOS>MOLECULE
*****
    7     6     0     0     0
SMALL
NO_CHARGES

@<TRIPOS>ATOM
      1 C1         12.9717  -12.9376    0.0000 CT        1 <0>         0.0000
      2 C2         13.6862  -12.5251    0.0000 C         1 <0>         0.0000
      3 O1         14.4006  -12.9376    0.0000 O2        1 <0>         0.0000
      4 O2         13.6862  -11.7001    0.0000 O2        1 <0>         0.0000
      5 H1         12.9717  -12.9376    0.0000 HC        1 <0>         0.0000
      6 H2         12.9717  -12.9376    0.0000 HC        1 <0>         0.0000
      7 H3         12.9717  -12.9376    0.0000 HC        1 <0>         0.0000
@<TRIPOS>BOND
     1    1    2 1
     2    2    3 1
     3    2    4 2
     4    1    5 1
     5    1    6 1
     6    1    7 1
@<TRIPOS>MOLECULE
*****
   12    11     0     0     0
SMALL
NO_CHARGES

@<TRIPOS>ATOM
      1 C1          2.0625   -0.7145    0.0000 CT        1 <0>         0.0000
      2 C2          1.2375   -0.7145    0.0000 CT        1 <0>         0.0000
      3 C3          0.8250    0.0000    0.0000 CT        1 <0>         0.0000
      4 O1          0.0000    0.0000    0.0000 OH        1 <0>         0.0000
      5 H1          2.0625   -0.7145    0.0000 HC        1 <0>         0.0000
      6 H2          2.0625   -0.7145    0.0000 HC        1 <0>         0.0000
      7 H3          2.0625   -0.7145    0.0000 HC        1 <0>         0.0000
      8 H4          1.2375   -0.7145    0.0000 HC        1 <0>         0.0000
      9 H5          1.2375   -0.7145    0.0000 HC        1 <0>         0.0000
     10 H6          0.8250    0.0000    0.0000 H1        1 <0>         0.0000
     11 H7          0.8250    0.0000    0.0000 H1        1 <0>         0.0000
     12 H8          0.0000    0.0000    0.0000 HO        1 <0>         0.0000
@<TRIPOS>BOND
     1    1    2 1
     2    2    3 1
     3    3    4 1
     4    1    5 1
     5    1    6 1
     6    1    7 1
     7    2    8 1
     8    2    9 1
     9    3   10 1
    10    3   11 1
    11    4   12 1
@<TRIPOS>MOLECULE
*****
   68    69     0     0     0
SMALL
NO_CHARGES

@<TRIPOS>ATOM
      1 C1          4.4913   -8.0240    0.0000 CT        1 <0>         0.0000
      2 C2          5.2058   -8.4365    0.0000 CT        1 <0>         0.0000
      3 C3          5.9203   -8.0240    0.0000 CT        1 <0>         0.0000
      4 C4          6.6348   -8.4365    0.0000 CT        1 <0>         0.0000
      5 C5          7.3492   -8.0240    0.0000 CT        1 <0>         0.0000
      6 C6          8.0637   -8.4365    0.0000 CT        1 <0>         0.0000
      7 C7          8.7782   -8.0240    0.0000 CT        1 <0>         0.0000
      8 C8          9.4926   -8.4365    0.0000 C         1 <0>         0.0000
      9 O1          9.4926   -9.2615    0.0000 O         1 <0>         0.0000
     10 O2         10.2071   -8.0240    0.0000 OS        1 <0>         0.0000
     11 C9         10.9216   -8.4365    0.0000 CT        1 <0>         0.0000
     12 C10        11.6361   -8.0240    0.0000 CT        1 <0>         0.0000
     13 O3         12.3897   -8.3595    0.0000 OS        1 <0>         0.0000
     14 C11        12.9418   -7.7464    0.0000 CT        1 <0>         0.0000
     15 C12        13.4938   -8.3595    0.0000 CT        1 <0>         0.0000
     16 O4         13.2389   -9.1442    0.0000 OH        1 <0>         0.0000
     17 O5         13.6092   -7.2615    0.0000 OS        1 <0>         0.0000
     18 C13        14.3629   -7.5971    0.0000 CT        1 <0>         0.0000
     19 O6         15.0303   -7.1122    0.0000 OS        1 <0>         0.0000
     20 C14        15.7840   -7.4477    0.0000 CT        1 <0>         0.0000
     21 C15        16.4514   -6.9628    0.0000 CT        1 <0>         0.0000
     22 O7         16.3652   -6.1423    0.0000 OH        1 <0>         0.0000
     23 C16        15.8702   -8.2682    0.0000 CT        1 <0>         0.0000
     24 O8         16.6239   -8.6037    0.0000 OH        1 <0>         0.0000
     25 C17        15.2028   -8.7531    0.0000 CT        1 <0>         0.0000
     26 O9         15.2890   -9.5736    0.0000 OH        1 <0>         0.0000
     27 C18        14.4491   -8.4176    0.0000 CT        1 <0>         0.0000
     28 O10        13.7817   -8.9025    0.0000 OH        1 <0>         0.0000
     29 C19        12.5293   -7.0320    0.0000 CT        1 <0>         0.0000
     30 O11        12.8648   -6.2783    0.0000 OH        1 <0>         0.0000
     31 C20        11.7223   -7.2035    0.0000 CT        1 <0>         0.0000
     32 O12        11.1092   -6.6515    0.0000 OH        1 <0>         0.0000
     33 H1          4.4913   -8.0240    0.0000 HC        1 <0>         0.0000
     34 H2          4.4913   -8.0240    0.0000 HC        1 <0>         0.0000
     35 H3          4.4913   -8.0240    0.0000 HC        1 <0>         0.0000
     36 H4          5.2058   -8.4365    0.0000 HC        1 <0>         0.0000
     37 H5          5.2058   -8.4365    0.0000 HC        1 <0>         0.0000
     38 H6          5.9203   -8.0240    0.0000 HC        1 <0>         0.0000
     39 H7          5.9203   -8.0240    0.0000 HC        1 <0>         0.0000
     40 H8          6.6348   -8.4365    0.0000 HC        1 <0>         0.0000
     41 H9          6.6348   -8.4365    0.0000 HC        1 <0>         0.0000
     42 H10         7.3492   -8.0240    0.0000 HC        1 <0>         0.0000
     43 H11         7.3492   -8.0240    0.0000 HC        1 <0>         0.0000
     44 H12         8.0637   -8.4365    0.0000 HC        1 <0>         0.0000
     45 H13         8.0637   -8.4365    0.0000 HC        1 <0>         0.0000
     46 H14         8.7782   -8.0240    0.0000 HC        1 <0>         0.0000
     47 H15         8.7782   -8.0240    0.0000 HC        1 <0>         0.0000
     48 H16        10.9216   -8.4365    0.0000 H1        1 <0>         0.0000
     49 H17        10.9216   -8.4365    0.0000 H1        1 <0>         0.0000
     50 H18        11.6361   -8.0240    0.0000 H1        1 <0>         0.0000
     51 H19        13.4938   -8.3595    0.0000 H1        1 <0>         0.0000
     52 H20        13.4938   -8.3595    0.0000 H1        1 <0>         0.0000
     53 H21        13.2389   -9.1442    0.0000 HO        1 <0>         0.0000
     54 H22        14.3629   -7.5971    0.0000 H2        1 <0>         0.0000
     55 H23        15.7840   -7.4477    0.0000 H1        1 <0>         0.0000
     56 H24        16.4514   -6.9628    0.0000 H1        1 <0>         0.0000
     57 H25        16.4514   -6.9628    0.0000 H1        1 <0>         0.0000
     58 H26        16.3652   -6.1423    0.0000 HO        1 <0>         0.0000
     59 H27        15.8702   -8.2682    0.0000 H1        1 <0>         0.0000
     60 H28        16.6239   -8.6037    0.0000 HO        1 <0>         0.0000
     61 H29        15.2028   -8.7531    0.0000 H1        1 <0>         0.0000
     62 H30        15.2890   -9.5736    0.0000 HO        1 <0>         0.0000
     63 H31        14.4491   -8.4176    0.0000 H1        1 <0>         0.0000
     64 H32        13.7817   -8.9025    0.0000 HO        1 <0>         0.0000
     65 H33        12.5293   -7.0320    0.0000 H1        1 <0>         0.0000
     66 H34        12.8648   -6.2783    0.0000 HO        1 <0>         0.0000
     67 H35        11.7223   -7.2035    0.0000 H1        1 <0>         0.0000
     68 H36        11.1092   -6.6515    0.0000 HO        1 <0>         0.0000
@<TRIPOS>BOND
     1    1    2 1
     2    2    3 1
     3    3    4 1
     4    4    5 1
     5    5    6 1
     6    6    7 1
     7    7    8 1
     8    8    9 2
     9    8   10 1
    10   10   11 1
    11   11   12 1
    12   12   13 1
    13   13   14 1
    14   14   15 1
    15   15   16 1
    16   14   17 1
    17   17   18 1
    18   18   19 1
    19   19   20 1
    20   20   21 1
    21   21   22 1
    22   20   23 1
    23   23   24 1
    24   23   25 1
    25   25   26 1
    26   25   27 1
    27   18   27 1
    28   27   28 1
    29   14   29 1
    30   29   30 1
    31   29   31 1
    32   12   31 1
    33   31   32 1
    34    1   33 1
    35    1   34 1
    36    1   35 1
    37    2   36 1
    38    2   37 1
    39    3   38 1
    40    3   39 1
    41    4   40 1
    42    4   41 1
    43    5   42 1
    44    5   43 1
    45    6   44 1
    46    6   45 1
    47    7   46 1
    48    7   47 1
    49   11   48 1
    50   11   49 1
    51   12   50 1
    52   15   51 1
    53   15   52 1
    54   16   53 1
    55   18   54 1
    56   20   55 1
    57   21   56 1
    58   21   57 1
    59   22   58 1
    60   23   59 1
    61   24   60 1
    62   25   61 1
    63   26   62 1
    64   27   63 1
    65   28   64 1
    66   29   65 1
    67   30   66 1
    68   31   67 1
    69   32   68 1
@<TRIPOS>MOLECULE
*****
   56    55     0     0     0
SMALL
NO_CHARGES

@<TRIPOS>ATOM
      1 C1          9.1855    6.1283    0.0000 CT        1 <0>         0.0000
      2 C2          9.9000    5.7158    0.0000 CT        1 <0>         0.0000
      3 C3         10.6145    6.1283    0.0000 CT        1 <0>         0.0000
      4 C4         11.3289    5.7158    0.0000 CT        1 <0>         0.0000
      5 C5         12.0434    6.1283    0.0000 CT        1 <0>         0.0000
      6 C6         12.7579    5.7158    0.0000 CT        1 <0>         0.0000
      7 C7         13.4724    6.1283    0.0000 CT        1 <0>         0.0000
      8 C8         14.1868    5.7158    0.0000 CT        1 <0>         0.0000
      9 C9         14.9013    6.1283    0.0000 CT        1 <0>         0.0000
     10 C10        15.6158    5.7158    0.0000 CT        1 <0>         0.0000
     11 C11        16.3302    6.1283    0.0000 CT        1 <0>         0.0000
     12 C12        17.0447    5.7158    0.0000 CT        1 <0>         0.0000
     13 C13        17.7592    6.1283    0.0000 CT        1 <0>         0.0000
     14 C14        18.4737    5.7158    0.0000 CT        1 <0>         0.0000
     15 C15        19.1881    6.1283    0.0000 CT        1 <0>         0.0000
     16 C16        19.9026    5.7158    0.0000 CT        1 <0>         0.0000
     17 C17        20.6171    6.1283    0.0000 CT        1 <0>         0.0000
     18 C18        21.3315    5.7158    0.0000 C         1 <0>         0.0000
     19 O1         22.0460    6.1283    0.0000 OH        1 <0>         0.0000
     20 O2         21.3315    4.8908    0.0000 O         1 <0>         0.0000
     21 H1          9.1855    6.1283    0.0000 HC        1 <0>         0.0000
     22 H2          9.1855    6.1283    0.0000 HC        1 <0>         0.0000
     23 H3          9.1855    6.1283    0.0000 HC        1 <0>         0.0000
     24 H4          9.9000    5.7158    0.0000 HC        1 <0>         0.0000
     25 H5          9.9000    5.7158    0.0000 HC        1 <0>         0.0000
     26 H6         10.6145    6.1283    0.0000 HC        1 <0>         0.0000
     27 H7         10.6145    6.1283    0.0000 HC        1 <0>         0.0000
     28 H8         11.3289    5.7158    0.0000 HC        1 <0>         0.0000
     29 H9         11.3289    5.7158    0.0000 HC        1 <0>         0.0000
     30 H10        12.0434    6.1283    0.0000 HC        1 <0>         0.0000
     31 H11        12.0434    6.1283    0.0000 HC        1 <0>         0.0000
     32 H12        12.7579    5.7158    0.0000 HC        1 <0>         0.0000
     33 H13        12.7579    5.7158    0.0000 HC        1 <0>         0.0000
     34 H14        13.4724    6.1283    0.0000 HC        1 <0>         0.0000
     35 H15        13.4724    6.1283    0.0000 HC        1 <0>         0.0000
     36 H16        14.1868    5.7158    0.0000 HC        1 <0>         0.0000
     37 H17        14.1868    5.7158    0.0000 HC        1 <0>         0.0000
     38 H18        14.9013    6.1283    0.0000 HC        1 <0>         0.0000
     39 H19        14.9013    6.1283    0.0000 HC        1 <0>         0.0000
     40 H20        15.6158    5.7158    0.0000 HC        1 <0>         0.0000
     41 H21        15.6158    5.7158    0.0000 HC        1 <0>         0.0000
     42 H22        16.3302    6.1283    0.0000 HC        1 <0>         0.0000
     43 H23        16.3302    6.1283    0.0000 HC        1 <0>         0.0000
     44 H24        17.0447    5.7158    0.0000 HC        1 <0>         0.0000
     45 H25        17.0447    5.7158    0.0000 HC        1 <0>         0.0000
     46 H26        17.7592    6.1283    0.0000 HC        1 <0>         0.0000
     47 H27        17.7592    6.1283    0.0000 HC        1 <0>         0.0000
     48 H28        18.4737    5.7158    0.0000 HC        1 <0>         0.0000
     49 H29        18.4737    5.7158    0.0000 HC        1 <0>         0.0000
     50 H30        19.1881    6.1283    0.0000 HC        1 <0>         0.0000
     51 H31        19.1881    6.1283    0.0000 HC        1 <0>         0.0000
     52 H32        19.9026    5.7158    0.0000 HC        1 <0>         0.0000
     53 H33        19.9026    5.7158    0.0000 HC        1 <0>         0.0000
     54 H34        20.6171    6.1283    0.0000 HC        1 <0>         0.0000
     55 H35        20.6171    6.1283    0.0000 HC        1 <0>         0.0000
     56 H36        22.0460    6.1283    0.0000 HO        1 <0>         0.0000
@<TRIPOS>BOND
     1    1    2 1
     2    2    3 1
     3    3    4 1
     4    4    5 1
     5    5    6 1
     6    6    7 1
     7    7    8 1
     8    8    9 1
     9    9   10 1
    10   10   11 1
    11   11   12 1
    12   12   13 1
    13   13   14 1
    14   14   15 1
    15   15   16 1
    16   16   17 1
    17   17   18 1
    18   18   19 1
    19   18   20 2
    20    1   21 1
    21    1   22 1
    22    1   23 1
    23    2   24 1
    24    2   25 1
    25    3   26 1
    26    3   27 1
    27    4   28 1
    28    4   29 1
    29    5   30 1
    30    5   31 1
    31    6   32 1
    32    6   33 1
    33    7   34 1
    34    7   35 1
    35    8   36 1
    36    8   37 1
    37    9   38 1
    38    9   39 1
    39   10   40 1
    40   10   41 1
    41   11   42 1
    42   11   43 1
    43   12   44 1
    44   12   45 1
    45   13   46 1
    46   13   47 1
    47   14   48 1
    48   14   49 1
    49   15   50 1
    50   15   51 1
    51   16   52 1
    52   16   53 1
    53   17   54 1
    54   17   55 1
    55   19   56 1
@<TRIPOS>MOLECULE
*****
   26    26     0     0     0
SMALL
NO_CHARGES

@<TRIPOS>ATOM
      1 C1          2.1434    2.0625    0.0000 CT        1 <0>         0.0000
      2 O1          2.1434    1.2375    0.0000 OS        1 <0>         0.0000
      3 C2          1.4289    0.8250    0.0000 CT        1 <0>         0.0000
      4 O2          1.4289    0.0000    0.0000 OS        1 <0>         0.0000
      5 C3          0.7145   -0.4125    0.0000 CT        1 <0>         0.0000
      6 C4          0.7145   -1.2375    0.0000 CT        1 <0>         0.0000
      7 C5          0.0000    0.0000    0.0000 CT        1 <0>         0.0000
      8 O3         -0.7145   -0.4125    0.0000 OH        1 <0>         0.0000
      9 C6          0.0000    0.8250    0.0000 CT        1 <0>         0.0000
     10 O4         -0.7145    1.2375    0.0000 OH        1 <0>         0.0000
     11 C7          0.7145    1.2375    0.0000 CT        1 <0>         0.0000
     12 O5          0.7145    2.0625    0.0000 OH        1 <0>         0.0000
     13 H1          2.1434    2.0625    0.0000 H1        1 <0>         0.0000
     14 H2          2.1434    2.0625    0.0000 H1        1 <0>         0.0000
     15 H3          2.1434    2.0625    0.0000 H1        1 <0>         0.0000
     16 H4          1.4289    0.8250    0.0000 H2        1 <0>         0.0000
     17 H5          0.7145   -0.4125    0.0000 H1        1 <0>         0.0000
     18 H6          0.7145   -1.2375    0.0000 HC        1 <0>         0.0000
     19 H7          0.7145   -1.2375    0.0000 HC        1 <0>         0.0000
     20 H8          0.7145   -1.2375    0.0000 HC        1 <0>         0.0000
     21 H9          0.0000    0.0000    0.0000 H1        1 <0>         0.0000
     22 H10        -0.7145   -0.4125    0.0000 HO        1 <0>         0.0000
     23 H11         0.0000    0.8250    0.0000 H1        1 <0>         0.0000
     24 H12        -0.7145    1.2375    0.0000 HO        1 <0>         0.0000
     25 H13         0.7145    1.2375    0.0000 H1        1 <0>         0.0000
     26 H14         0.7145    2.0625    0.0000 HO        1 <0>         0.0000
@<TRIPOS>BOND
     1    1    2 1
     2    2    3 1
     3    3    4 1
     4    4    5 1
     5    5    6 1
     6    5    7 1
     7    7    8 1
     8    7    9 1
     9    9   10 1
    10    9   11 1
    11    3   11 1
    12   11   12 1
    13    1   13 1
    14    1   14 1
    15    1   15 1
    16    3   16 1
    17    5   17 1
    18    6   18 1
    19    6   19 1
    20    6   20 1
    21    7   21 1
    22    8   22 1
    23    9   23 1
    24   10   24 1
    25   11   25 1
    26   12   26 1
@<TRIPOS>MOLECULE
*****
   99   104     0     0     0
SMALL
NO_CHARGES

@<TRIPOS>ATOM
      1 O1          3.5724   -2.8875    0.0000 OH        1 <0>         0.0000
      2 C1          3.5724   -3.7125    0.0000 CA        1 <0>         0.0000
      3 C2          4.2868   -4.1250    0.0000 CA        1 <0>         0.0000
      4 C3          4.2868   -4.9500    0.0000 CA        1 <0>         0.0000
      5 C4          3.5724   -5.3625    0.0000 CA        1 <0>         0.0000
      6 C5          2.8579   -4.9500    0.0000 CA        1 <0>         0.0000
      7 O2          2.1434   -5.3625    0.0000 OH        1 <0>         0.0000
      8 C6          2.8579   -4.1250    0.0000 CA        1 <0>         0.0000
      9 O3          2.1434   -3.7125    0.0000 OH        1 <0>         0.0000
     10 C7          5.0013   -5.3625    0.0000 C         1 <0>         0.0000
     11 O4          5.7158   -4.9500    0.0000 O         1 <0>         0.0000
     12 O5          5.0013   -6.1875    0.0000 OS        1 <0>         0.0000
     13 C8          5.7158   -6.6000    0.0000 CT        1 <0>         0.0000
     14 C9          6.4302   -6.1875    0.0000 CT        1 <0>         0.0000
     15 O6          6.4302   -5.3625    0.0000 OS        1 <0>         0.0000
     16 C10         7.1447   -4.9500    0.0000 CT        1 <0>         0.0000
     17 O7          7.1447   -4.1250    0.0000 OS        1 <0>         0.0000
     18 C11         6.4302   -3.7125    0.0000 C         1 <0>         0.0000
     19 O8          5.7158   -4.1250    0.0000 O         1 <0>         0.0000
     20 C12         6.4302   -2.8875    0.0000 CA        1 <0>         0.0000
     21 C13         5.7158   -2.4750    0.0000 CA        1 <0>         0.0000
     22 C14         5.7158   -1.6500    0.0000 CA        1 <0>         0.0000
     23 O9          5.0013   -1.2375    0.0000 OH        1 <0>         0.0000
     24 C15         6.4302   -1.2375    0.0000 CA        1 <0>         0.0000
     25 O10         6.4302   -0.4125    0.0000 OH        1 <0>         0.0000
     26 C16         7.1447   -1.6500    0.0000 CA        1 <0>         0.0000
     27 O11         7.8592   -1.2375    0.0000 OH        1 <0>         0.0000
     28 C17         7.1447   -2.4750    0.0000 CA        1 <0>         0.0000
     29 C18         7.8592   -5.3625    0.0000 CT        1 <0>         0.0000
     30 O12         8.5737   -4.9500    0.0000 OS        1 <0>         0.0000
     31 C19         8.5737   -4.1250    0.0000 C         1 <0>         0.0000
     32 O13         7.8592   -3.7125    0.0000 O         1 <0>         0.0000
     33 C20         9.2881   -3.7125    0.0000 CA        1 <0>         0.0000
     34 C21         9.2881   -2.8875    0.0000 CA        1 <0>         0.0000
     35 C22        10.0026   -2.4750    0.0000 CA        1 <0>         0.0000
     36 O14        10.0026   -1.6500    0.0000 OH        1 <0>         0.0000
     37 C23        10.7171   -2.8875    0.0000 CA        1 <0>         0.0000
     38 O15        11.4315   -2.4750    0.0000 OH        1 <0>         0.0000
     39 C24        10.7171   -3.7125    0.0000 CA        1 <0>         0.0000
     40 O16        11.4315   -4.1250    0.0000 OH        1 <0>         0.0000
     41 C25        10.0026   -4.1250    0.0000 CA        1 <0>         0.0000
     42 C26         7.8592   -6.1875    0.0000 CT        1 <0>         0.0000
     43 O17         8.5737   -6.6000    0.0000 OS        1 <0>         0.0000
     44 C27         9.2881   -6.1875    0.0000 C         1 <0>         0.0000
     45 O18         9.2881   -5.3625    0.0000 O         1 <0>         0.0000
     46 C28        10.0026   -6.6000    0.0000 CA        1 <0>         0.0000
     47 C29        10.7171   -6.1875    0.0000 CA        1 <0>         0.0000
     48 C30        11.4315   -6.6000    0.0000 CA        1 <0>         0.0000
     49 O19        12.1460   -6.1875    0.0000 OH        1 <0>         0.0000
     50 C31        11.4315   -7.4250    0.0000 CA        1 <0>         0.0000
     51 O20        12.1460   -7.8375    0.0000 OH        1 <0>         0.0000
     52 C32        10.7171   -7.8375    0.0000 CA        1 <0>         0.0000
     53 O21        10.7171   -8.6625    0.0000 OH        1 <0>         0.0000
     54 C33        10.0026   -7.4250    0.0000 CA        1 <0>         0.0000
     55 C34         7.1447   -6.6000    0.0000 CT        1 <0>         0.0000
     56 O22         7.1447   -7.4250    0.0000 OS        1 <0>         0.0000
     57 C35         6.4302   -7.8375    0.0000 C         1 <0>         0.0000
     58 O23         5.7158   -7.4250    0.0000 O         1 <0>         0.0000
     59 C36         6.4302   -8.6625    0.0000 CA        1 <0>         0.0000
     60 C37         7.1447   -9.0750    0.0000 CA        1 <0>         0.0000
     61 C38         7.1447   -9.9000    0.0000 CA        1 <0>         0.0000
     62 O24         7.8592  -10.3125    0.0000 OH        1 <0>         0.0000
     63 C39         6.4302  -10.3125    0.0000 CA        1 <0>         0.0000
     64 O25         6.4302  -11.1375    0.0000 OH        1 <0>         0.0000
     65 C40         5.7158   -9.9000    0.0000 CA        1 <0>         0.0000
     66 O26         5.0013  -10.3125    0.0000 OH        1 <0>         0.0000
     67 C41         5.7158   -9.0750    0.0000 CA        1 <0>         0.0000
     68 H1          3.5724   -2.8875    0.0000 HO        1 <0>         0.0000
     69 H2          4.2868   -4.1250    0.0000 HA        1 <0>         0.0000
     70 H3          3.5724   -5.3625    0.0000 HA        1 <0>         0.0000
     71 H4          2.1434   -5.3625    0.0000 HO        1 <0>         0.0000
     72 H5          2.1434   -3.7125    0.0000 HO        1 <0>         0.0000
     73 H6          5.7158   -6.6000    0.0000 H1        1 <0>         0.0000
     74 H7          5.7158   -6.6000    0.0000 H1        1 <0>         0.0000
     75 H8          6.4302   -6.1875    0.0000 H1        1 <0>         0.0000
     76 H9          7.1447   -4.9500    0.0000 H2        1 <0>         0.0000
     77 H10         5.7158   -2.4750    0.0000 HA        1 <0>         0.0000
     78 H11         5.0013   -1.2375    0.0000 HO        1 <0>         0.0000
     79 H12         6.4302   -0.4125    0.0000 HO        1 <0>         0.0000
     80 H13         7.8592   -1.2375    0.0000 HO        1 <0>         0.0000
     81 H14         7.1447   -2.4750    0.0000 HA        1 <0>         0.0000
     82 H15         7.8592   -5.3625    0.0000 H1        1 <0>         0.0000
     83 H16         9.2881   -2.8875    0.0000 HA        1 <0>         0.0000
     84 H17        10.0026   -1.6500    0.0000 HO        1 <0>         0.0000
     85 H18        11.4315   -2.4750    0.0000 HO        1 <0>         0.0000
     86 H19        11.4315   -4.1250    0.0000 HO        1 <0>         0.0000
     87 H20        10.0026   -4.1250    0.0000 HA        1 <0>         0.0000
     88 H21         7.8592   -6.1875    0.0000 H1        1 <0>         0.0000
     89 H22        10.7171   -6.1875    0.0000 HA        1 <0>         0.0000
     90 H23        12.1460   -6.1875    0.0000 HO        1 <0>         0.0000
     91 H24        12.1460   -7.8375    0.0000 HO        1 <0>         0.0000
     92 H25        10.7171   -8.6625    0.0000 HO        1 <0>         0.0000
     93 H26        10.0026   -7.4250    0.0000 HA        1 <0>         0.0000
     94 H27         7.1447   -6.6000    0.0000 H1        1 <0>         0.0000
     95 H28         7.1447   -9.0750    0.0000 HA        1 <0>         0.0000
     96 H29         7.8592  -10.3125    0.0000 HO        1 <0>         0.0000
     97 H30         6.4302  -11.1375    0.0000 HO        1 <0>         0.0000
     98 H31         5.0013  -10.3125    0.0000 HO        1 <0>         0.0000
     99 H32         5.7158   -9.0750    0.0000 HA        1 <0>         0.0000
@<TRIPOS>BOND
     1    1    2 1
     2    2    3 ar
     3    3    4 ar
     4    4    5 ar
     5    5    6 ar
     6    6    7 1
     7    6    8 ar
     8    2    8 ar
     9    8    9 1
    10    4   10 1
    11   10   11 2
    12   10   12 1
    13   12   13 1
    14   13   14 1
    15   14   15 1
    16   15   16 1
    17   16   17 1
    18   17   18 1
    19   18   19 2
    20   18   20 1
    21   20   21 ar
    22   21   22 ar
    23   22   23 1
    24   22   24 ar
    25   24   25 1
    26   24   26 ar
    27   26   27 1
    28   26   28 ar
    29   20   28 ar
    30   16   29 1
    31   29   30 1
    32   30   31 1
    33   31   32 2
    34   31   33 1
    35   33   34 ar
    36   34   35 ar
    37   35   36 1
    38   35   37 ar
    39   37   38 1
    40   37   39 ar
    41   39   40 1
    42   39   41 ar
    43   33   41 ar
    44   29   42 1
    45   42   43 1
    46   43   44 1
    47   44   45 2
    48   44   46 1
    49   46   47 ar
    50   47   48 ar
    51   48   49 1
    52   48   50 ar
    53   50   51 1
    54   50   52 ar
    55   52   53 1
    56   52   54 ar
    57   46   54 ar
    58   42   55 1
    59   14   55 1
    60   55   56 1
    61   56   57 1
    62   57   58 2
    63   57   59 1
    64   59   60 ar
    65   60   61 ar
    66   61   62 1
    67   61   63 ar
    68   63   64 1
    69   63   65 ar
    70   65   66 1
    71   65   67 ar
    72   59   67 ar
    73    1   68 1
    74    3   69 1
    75    5   70 1
    76    7   71 1
    77    9   72 1
    78   13   73 1
    79   13   74 1
    80   14   75 1
    81   16   76 1
    82   21   77 1
    83   23   78 1
    84   25   79 1
    85   27   80 1
    86   28   81 1
    87   29   82 1
    88   34   83 1
    89   36   84 1
    90   38   85 1
    91   40   86 1
    92   41   87 1
    93   42   88 1
    94   47   89 1
    95   49   90 1
    96   51   91 1
    97   53   92 1
    98   54   93 1
    99   55   94 1
   100   60   95 1
   101   62   96 1
   102   64   97 1
   103   66   98 1
   104   67   99 1
@<TRIPOS>MOLECULE
*****
   21    20     0     0     0
SMALL
NO_CHARGES

@<TRIPOS>ATOM
      1 O1          3.9039    0.6039    0.0000 OH        1 <0>         0.0000
      2 C1          3.9039    1.4289    0.0000 CT        1 <0>         0.0000
      3 C2          3.1895    1.8414    0.0000 CT        1 <0>         0.0000
      4 C3          2.4750    1.4289    0.0000 CT        1 <0>         0.0000
      5 O2          2.4750    0.6039    0.0000 OH        1 <0>         0.0000
      6 C4          1.7605    1.8414    0.0000 C         1 <0>         0.0000
      7 O3          1.0461    1.4289    0.0000 O2        1 <0>         0.0000
      8 O4          1.7605    2.6664    0.0000 O2        1 <0>         0.0000
      9 C5          4.6184    1.8414    0.0000 CT        1 <0>         0.0000
     10 O5          4.6184    2.6664    0.0000 OH        1 <0>         0.0000
     11 C6          5.3329    1.4289    0.0000 C         1 <0>         0.0000
     12 O6          6.0474    1.8414    0.0000 O2        1 <0>         0.0000
     13 O7          5.3329    0.6039    0.0000 O2        1 <0>         0.0000
     14 H1          3.9039    0.6039    0.0000 HO        1 <0>         0.0000
     15 H2          3.9039    1.4289    0.0000 H1        1 <0>         0.0000
     16 H3          3.1895    1.8414    0.0000 HC        1 <0>         0.0000
     17 H4          3.1895    1.8414    0.0000 HC        1 <0>         0.0000
     18 H5          2.4750    1.4289    0.0000 H1        1 <0>         0.0000
     19 H6          2.4750    0.6039    0.0000 HO        1 <0>         0.0000
     20 H7          4.6184    1.8414    0.0000 H1        1 <0>         0.0000
     21 H8          4.6184    2.6664    0.0000 HO        1 <0>         0.0000
@<TRIPOS>BOND
     1    1    2 1
     2    2    3 1
     3    3    4 1
     4    4    5 1
     5    4    6 1
     6    6    7 1
     7    6    8 2
     8    2    9 1
     9    9   10 1
    10    9   11 1
    11   11   12 1
    12   11   13 2
    13    1   14 1
    14    2   15 1
    15    3   16 1
    16    3   17 1
    17    4   18 1
    18    5   19 1
    19    9   20 1
    20   10   21 1
@<TRIPOS>MOLECULE
*****
   19    18     0     0     0
SMALL
NO_CHARGES

@<TRIPOS>ATOM
      1 C1         -0.1914    0.7145    0.0000 CT        1 <0>         0.0000
      2 C2          0.5230    1.1270    0.0000 CT        1 <0>         0.0000
      3 C3          0.5230    1.9520    0.0000 CT        1 <0>         0.0000
      4 C4          1.2375    0.7145    0.0000 CT        1 <0>         0.0000
      5 C5          1.9520    1.1270    0.0000 C         1 <0>         0.0000
      6 O1          1.9520    1.9520    0.0000 O         1 <0>         0.0000
      7 C6          2.6664    0.7145    0.0000 C         1 <0>         0.0000
      8 O2          3.3809    1.1270    0.0000 OH        1 <0>         0.0000
      9 O3          2.6664   -0.1105    0.0000 O         1 <0>         0.0000
     10 H1         -0.1914    0.7145    0.0000 HC        1 <0>         0.0000
     11 H2         -0.1914    0.7145    0.0000 HC        1 <0>         0.0000
     12 H3         -0.1914    0.7145    0.0000 HC        1 <0>         0.0000
     13 H4          0.5230    1.1270    0.0000 HC        1 <0>         0.0000
     14 H5          0.5230    1.9520    0.0000 HC        1 <0>         0.0000
     15 H6          0.5230    1.9520    0.0000 HC        1 <0>         0.0000
     16 H7          0.5230    1.9520    0.0000 HC        1 <0>         0.0000
     17 H8          1.2375    0.7145    0.0000 HC        1 <0>         0.0000
     18 H9          1.2375    0.7145    0.0000 HC        1 <0>         0.0000
     19 H10         3.3809    1.1270    0.0000 HO        1 <0>         0.0000
@<TRIPOS>BOND
     1    1    2 1
     2    2    3 1
     3    2    4 1
     4    4    5 1
     5    5    6 2
     6    5    7 1
     7    7    8 1
     8    7    9 2
     9    1   10 1
    10    1   11 1
    11    1   12 1
    12    2   13 1
    13    3   14 1
    14    3   15 1
    15    3   16 1
    16    4   17 1
    17    4   18 1
    18    8   19 1
@<TRIPOS>MOLECULE
*****
  117   117     0     0     0
SMALL
NO_CHARGES

@<TRIPOS>ATOM
      1 C1         12.8605   20.6250    0.0000 CT        1 <0>         0.0000
      2 C2         12.8605   19.8000    0.0000 CM        1 <0>         0.0000
      3 C3         13.5749   19.3875    0.0000 CT        1 <0>         0.0000
      4 C4         12.1460   19.3875    0.0000 CM        1 <0>         0.0000
      5 C5         12.1460   18.5625    0.0000 CT        1 <0>         0.0000
      6 C6         11.4315   18.1500    0.0000 CT        1 <0>         0.0000
      7 C7         11.4315   17.3250    0.0000 CM        1 <0>         0.0000
      8 C8         12.1460   16.9125    0.0000 CT        1 <0>         0.0000
      9 C9         10.7171   16.9125    0.0000 CM        1 <0>         0.0000
     10 C10        10.7171   16.0875    0.0000 CT        1 <0>         0.0000
     11 C11        10.0026   15.6750    0.0000 CT        1 <0>         0.0000
     12 C12        10.0026   14.8500    0.0000 CM        1 <0>         0.0000
     13 C13        10.7171   14.4375    0.0000 CT        1 <0>         0.0000
     14 C14         9.2881   14.4375    0.0000 CM        1 <0>         0.0000
     15 C15         9.2881   13.6125    0.0000 CT        1 <0>         0.0000
     16 C16         8.5737   13.2000    0.0000 CT        1 <0>         0.0000
     17 C17         8.5737   12.3750    0.0000 CM        1 <0>         0.0000
     18 C18         9.2881   11.9625    0.0000 CT        1 <0>         0.0000
     19 C19         7.8592   11.9625    0.0000 CM        1 <0>         0.0000
     20 C20         7.8592   11.1375    0.0000 CT        1 <0>         0.0000
     21 C21         7.1447   10.7250    0.0000 CT        1 <0>         0.0000
     22 C22         7.1447    9.9000    0.0000 CM        1 <0>         0.0000
     23 C23         7.8592    9.4875    0.0000 CT        1 <0>         0.0000
     24 C24         6.4302    9.4875    0.0000 CM        1 <0>         0.0000
     25 C25         6.4302    8.6625    0.0000 CT        1 <0>         0.0000
     26 C26         5.7158    8.2500    0.0000 CT        1 <0>         0.0000
     27 C27         5.7158    7.4250    0.0000 CM        1 <0>         0.0000
     28 C28         6.4302    7.0125    0.0000 CT        1 <0>         0.0000
     29 C29         5.0013    7.0125    0.0000 CM        1 <0>         0.0000
     30 C30         5.0013    6.1875    0.0000 CT        1 <0>         0.0000
     31 C31         4.2868    5.7750    0.0000 CT        1 <0>         0.0000
     32 C32         4.2868    4.9500    0.0000 CM        1 <0>         0.0000
     33 C33         5.0013    4.5375    0.0000 CT        1 <0>         0.0000
     34 C34         3.5724    4.5375    0.0000 CM        1 <0>         0.0000
     35 C35         3.5724    3.7125    0.0000 CT        1 <0>         0.0000
     36 C36         2.8579    3.3000    0.0000 CT        1 <0>         0.0000
     37 C37         2.8579    2.4750    0.0000 CM        1 <0>         0.0000
     38 C38         3.5724    2.0625    0.0000 CT        1 <0>         0.0000
     39 C39         2.1434    2.0625    0.0000 CM        1 <0>         0.0000
     40 C40         2.1434    1.2375    0.0000 CT        1 <0>         0.0000
     41 C41         1.4289    0.8250    0.0000 CA        1 <0>         0.0000
     42 C42         1.4289    0.0000    0.0000 CA        1 <0>         0.0000
     43 C43         0.7145   -0.4125    0.0000 CA        1 <0>         0.0000
     44 C44         0.0000    0.0000    0.0000 CA        1 <0>         0.0000
     45 C45         0.0000    0.8250    0.0000 CA        1 <0>         0.0000
     46 C46         0.7145    1.2375    0.0000 CA        1 <0>         0.0000
     47 O1          0.7145    2.0625    0.0000 OH        1 <0>         0.0000
     48 H1         12.8605   20.6250    0.0000 HC        1 <0>         0.0000
     49 H2         12.8605   20.6250    0.0000 HC        1 <0>         0.0000
     50 H3         12.8605   20.6250    0.0000 HC        1 <0>         0.0000
     51 H4         13.5749   19.3875    0.0000 HC        1 <0>         0.0000
     52 H5         13.5749   19.3875    0.0000 HC        1 <0>         0.0000
     53 H6         13.5749   19.3875    0.0000 HC        1 <0>         0.0000
     54 H7         12.1460   19.3875    0.0000 HA        1 <0>         0.0000
     55 H8         12.1460   18.5625    0.0000 HC        1 <0>         0.0000
     56 H9         12.1460   18.5625    0.0000 HC        1 <0>         0.0000
     57 H10        11.4315   18.1500    0.0000 HC        1 <0>         0.0000
     58 H11        11.4315   18.1500    0.0000 HC        1 <0>         0.0000
     59 H12        12.1460   16.9125    0.0000 HC        1 <0>         0.0000
     60 H13        12.1460   16.9125    0.0000 HC        1 <0>         0.0000
     61 H14        12.1460   16.9125    0.0000 HC        1 <0>         0.0000
     62 H15        10.7171   16.9125    0.0000 HA        1 <0>         0.0000
     63 H16        10.7171   16.0875    0.0000 HC        1 <0>         0.0000
     64 H17        10.7171   16.0875    0.0000 HC        1 <0>         0.0000
     65 H18        10.0026   15.6750    0.0000 HC        1 <0>         0.0000
     66 H19        10.0026   15.6750    0.0000 HC        1 <0>         0.0000
     67 H20        10.7171   14.4375    0.0000 HC        1 <0>         0.0000
     68 H21        10.7171   14.4375    0.0000 HC        1 <0>         0.0000
     69 H22        10.7171   14.4375    0.0000 HC        1 <0>         0.0000
     70 H23         9.2881   14.4375    0.0000 HA        1 <0>         0.0000
     71 H24         9.2881   13.6125    0.0000 HC        1 <0>         0.0000
     72 H25         9.2881   13.6125    0.0000 HC        1 <0>         0.0000
     73 H26         8.5737   13.2000    0.0000 HC        1 <0>         0.0000
     74 H27         8.5737   13.2000    0.0000 HC        1 <0>         0.0000
     75 H28         9.2881   11.9625    0.0000 HC        1 <0>         0.0000
     76 H29         9.2881   11.9625    0.0000 HC        1 <0>         0.0000
     77 H30         9.2881   11.9625    0.0000 HC        1 <0>         0.0000
     78 H31         7.8592   11.9625    0.0000 HA        1 <0>         0.0000
     79 H32         7.8592   11.1375    0.0000 HC        1 <0>         0.0000
     80 H33         7.8592   11.1375    0.0000 HC        1 <0>         0.0000
     81 H34         7.1447   10.7250    0.0000 HC        1 <0>         0.0000
     82 H35         7.1447   10.7250    0.0000 HC        1 <0>         0.0000
     83 H36         7.8592    9.4875    0.0000 HC        1 <0>         0.0000
     84 H37         7.8592    9.4875    0.0000 HC        1 <0>         0.0000
     85 H38         7.8592    9.4875    0.0000 HC        1 <0>         0.0000
     86 H39         6.4302    9.4875    0.0000 HA        1 <0>         0.0000
     87 H40         6.4302    8.6625    0.0000 HC        1 <0>         0.0000
     88 H41         6.4302    8.6625    0.0000 HC        1 <0>         0.0000
     89 H42         5.7158    8.2500    0.0000 HC        1 <0>         0.0000
     90 H43         5.7158    8.2500    0.0000 HC        1 <0>         0.0000
     91 H44         6.4302    7.0125    0.0000 HC        1 <0>         0.0000
     92 H45         6.4302    7.0125    0.0000 HC        1 <0>         0.0000
     93 H46         6.4302    7.0125    0.0000 HC        1 <0>         0.0000
     94 H47         5.0013    7.0125    0.0000 HA        1 <0>         0.0000
     95 H48         5.0013    6.1875    0.0000 HC        1 <0>         0.0000
     96 H49         5.0013    6.1875    0.0000 HC        1 <0>         0.0000
     97 H50         4.2868    5.7750    0.0000 HC        1 <0>         0.0000
     98 H51         4.2868    5.7750    0.0000 HC        1 <0>         0.0000
     99 H52         5.0013    4.5375    0.0000 HC        1 <0>         0.0000
    100 H53         5.0013    4.5375    0.0000 HC        1 <0>         0.0000
    101 H54         5.0013    4.5375    0.0000 HC        1 <0>         0.0000
    102 H55         3.5724    4.5375    0.0000 HA        1 <0>         0.0000
    103 H56         3.5724    3.7125    0.0000 HC        1 <0>         0.0000
    104 H57         3.5724    3.7125    0.0000 HC        1 <0>         0.0000
    105 H58         2.8579    3.3000    0.0000 HC        1 <0>         0.0000
    106 H59         2.8579    3.3000    0.0000 HC        1 <0>         0.0000
    107 H60         3.5724    2.0625    0.0000 HC        1 <0>         0.0000
    108 H61         3.5724    2.0625    0.0000 HC        1 <0>         0.0000
    109 H62         3.5724    2.0625    0.0000 HC        1 <0>         0.0000
    110 H63         2.1434    2.0625    0.0000 HA        1 <0>         0.0000
    111 H64         2.1434    1.2375    0.0000 HC        1 <0>         0.0000
    112 H65         2.1434    1.2375    0.0000 HC        1 <0>         0.0000
    113 H66         1.4289    0.0000    0.0000 HA        1 <0>         0.0000
    114 H67         0.7145   -0.4125    0.0000 HA        1 <0>         0.0000
    115 H68         0.0000    0.0000    0.0000 HA        1 <0>         0.0000
    116 H69         0.0000    0.8250    0.0000 HA        1 <0>         0.0000
    117 H70         0.7145    2.0625    0.0000 HO        1 <0>         0.0000
@<TRIPOS>BOND
     1    1    2 1
     2    2    3 1
     3    2    4 2
     4    4    5 1
     5    5    6 1
     6    6    7 1
     7    7    8 1
     8    7    9 2
     9    9   10 1
    10   10   11 1
    11   11   12 1
    12   12   13 1
    13   12   14 2
    14   14   15 1
    15   15   16 1
    16   16   17 1
    17   17   18 1
    18   17   19 2
    19   19   20 1
    20   20   21 1
    21   21   22 1
    22   22   23 1
    23   22   24 2
    24   24   25 1
    25   25   26 1
    26   26   27 1
    27   27   28 1
    28   27   29 2
    29   29   30 1
    30   30   31 1
    31   31   32 1
    32   32   33 1
    33   32   34 2
    34   34   35 1
    35   35   36 1
    36   36   37 1
    37   37   38 1
    38   37   39 2
    39   39   40 1
    40   40   41 1
    41   41   42 ar
    42   42   43 ar
    43   43   44 ar
    44   44   45 ar
    45   45   46 ar
    46   41   46 ar
    47   46   47 1
    48    1   48 1
    49    1   49 1
    50    1   50 1
    51    3   51 1
    52    3   52 1
    53    3   53 1
    54    4   54 1
    55    5   55 1
    56    5   56 1
    57    6   57 1
    58    6   58 1
    59    8   59 1
    60    8   60 1
    61    8   61 1
    62    9   62 1
    63   10   63 1
    64   10   64 1
    65   11   65 1
    66   11   66 1
    67   13   67 1
    68   13   68 1
    69   13   69 1
    70   14   70 1
    71   15   71 1
    72   15   72 1
    73   16   73 1
    74   16   74 1
    75   18   75 1
    76   18   76 1
    77   18   77 1
    78   19   78 1
    79   20   79 1
    80   20   80 1
    81   21   81 1
    82   21   82 1
    83   23   83 1
    84   23   84 1
    85   23   85 1
    86   24   86 1
    87   25   87 1
    88   25   88 1
    89   26   89 1
    90   26   90 1
    91   28   91 1
    92   28   92 1
    93   28   93 1
    94   29   94 1
    95   30   95 1
    96   30   96 1
    97   31   97 1
    98   31   98 1
    99   33   99 1
   100   33  100 1
   101   33  101 1
   102   34  102 1
   103   35  103 1
   104   35  104 1
   105   36  105 1
   106   36  106 1
   107   38  107 1
   108   38  108 1
   109   38  109 1
   110   39  110 1
   111   40  111 1
   112   40  112 1
   113   42  113 1
   114   43  114 1
   115   44  115 1
   116   45  116 1
   117   47  117 1
@<TRIPOS>MOLECULE
*****
   19    18     0     0     0
SMALL
NO_CHARGES

@<TRIPOS>ATOM
      1 O1          3.9039    0.6039    0.0000 OH        1 <0>         0.0000
      2 C1          3.9039    1.4289    0.0000 CT        1 <0>         0.0000
      3 C2          3.1895    1.8414    0.0000 CT        1 <0>         0.0000
      4 C3          2.4750    1.4289    0.0000 C         1 <0>         0.0000
      5 O2          2.4750    0.6039    0.0000 O         1 <0>         0.0000
      6 C4          1.7605    1.8414    0.0000 C         1 <0>         0.0000
      7 O3          1.0461    1.4289    0.0000 O2        1 <0>         0.0000
      8 O4          1.7605    2.6664    0.0000 O2        1 <0>         0.0000
      9 C5          4.6184    1.8414    0.0000 CT        1 <0>         0.0000
     10 O5          4.6184    2.6664    0.0000 OH        1 <0>         0.0000
     11 C6          5.3329    1.4289    0.0000 C         1 <0>         0.0000
     12 O6          6.0474    1.8414    0.0000 O2        1 <0>         0.0000
     13 O7          5.3329    0.6039    0.0000 O2        1 <0>         0.0000
     14 H1          3.9039    0.6039    0.0000 HO        1 <0>         0.0000
     15 H2          3.9039    1.4289    0.0000 H1        1 <0>         0.0000
     16 H3          3.1895    1.8414    0.0000 HC        1 <0>         0.0000
     17 H4          3.1895    1.8414    0.0000 HC        1 <0>         0.0000
     18 H5          4.6184    1.8414    0.0000 H1        1 <0>         0.0000
     19 H6          4.6184    2.6664    0.0000 HO        1 <0>         0.0000
@<TRIPOS>BOND
     1    1    2 1
     2    2    3 1
     3    3    4 1
     4    4    5 2
     5    4    6 1
     6    6    7 1
     7    6    8 2
     8    2    9 1
     9    9   10 1
    10    9   11 1
    11   11   12 1
    12   11   13 2
    13    1   14 1
    14    2   15 1
    15    3   16 1
    16    3   17 1
    17    9   18 1
    18   10   19 1
@<TRIPOS>MOLECULE
*****
   20    20     0     0     0
SMALL
NO_CHARGES

@<TRIPOS>ATOM
      1 O1         -1.8897   -0.2077    0.0000 OH        1 <0>         0.0000
      2 C1         -1.2766    0.3443    0.0000 CT        1 <0>         0.0000
      3 C2         -0.4920    0.0894    0.0000 CT        1 <0>         0.0000
      4 O2          0.1754    0.5743    0.0000 OS        1 <0>         0.0000
      5 C3          0.8429    0.0894    0.0000 CT        1 <0>         0.0000
      6 O3          1.6275    0.3443    0.0000 OH        1 <0>         0.0000
      7 C4          0.5879   -0.6952    0.0000 CT        1 <0>         0.0000
      8 O4          1.0729   -1.3627    0.0000 OH        1 <0>         0.0000
      9 C5         -0.2371   -0.6952    0.0000 CT        1 <0>         0.0000
     10 O5         -0.7220   -1.3627    0.0000 OH        1 <0>         0.0000
     11 H1         -1.8897   -0.2077    0.0000 HO        1 <0>         0.0000
     12 H2         -1.2766    0.3443    0.0000 H1        1 <0>         0.0000
     13 H3         -1.2766    0.3443    0.0000 H1        1 <0>         0.0000
     14 H4         -0.4920    0.0894    0.0000 H1        1 <0>         0.0000
     15 H5          0.8429    0.0894    0.0000 H2        1 <0>         0.0000
     16 H6          1.6275    0.3443    0.0000 HO        1 <0>         0.0000
     17 H7          0.5879   -0.6952    0.0000 H1        1 <0>         0.0000
     18 H8          1.0729   -1.3627    0.0000 HO        1 <0>         0.0000
     19 H9         -0.2371   -0.6952    0.0000 H1        1 <0>         0.0000
     20 H10        -0.7220   -1.3627    0.0000 HO        1 <0>         0.0000
@<TRIPOS>BOND
     1    1    2 1
     2    2    3 1
     3    3    4 1
     4    4    5 1
     5    5    6 1
     6    5    7 1
     7    7    8 1
     8    7    9 1
     9    3    9 1
    10    9   10 1
    11    1   11 1
    12    2   12 1
    13    2   13 1
    14    3   14 1
    15    5   15 1
    16    6   16 1
    17    7   17 1
    18    8   18 1
    19    9   19 1
    20   10   20 1
@<TRIPOS>MOLECULE
*****
   13    13     0     0     0
SMALL
NO_CHARGES

@<TRIPOS>ATOM
      1 O1          0.7145    2.0625    0.0000 OH        1 <0>         0.0000
      2 C1          0.7145    1.2375    0.0000 CA        1 <0>         0.0000
      3 C2          1.4289    0.8250    0.0000 CA        1 <0>         0.0000
      4 C3          1.4289    0.0000    0.0000 CA        1 <0>         0.0000
      5 C4          0.7145   -0.4125    0.0000 CA        1 <0>         0.0000
      6 C5          0.0000    0.0000    0.0000 CA        1 <0>         0.0000
      7 C6          0.0000    0.8250    0.0000 CA        1 <0>         0.0000
      8 H1          0.7145    2.0625    0.0000 HO        1 <0>         0.0000
      9 H2          1.4289    0.8250    0.0000 HA        1 <0>         0.0000
     10 H3          1.4289    0.0000    0.0000 HA        1 <0>         0.0000
     11 H4          0.7145   -0.4125    0.0000 HA        1 <0>         0.0000
     12 H5          0.0000    0.0000    0.0000 HA        1 <0>         0.0000
     13 H6          0.0000    0.8250    0.0000 HA        1 <0>         0.0000
@<TRIPOS>BOND
     1    1    2 1
     2    2    3 ar
     3    3    4 ar
     4    4    5 ar
     5    5    6 ar
     6    6    7 ar
     7    2    7 ar
     8    1    8 1
     9    3    9 1
    10    4   10 1
    11    5   11 1
    12    6   12 1
    13    7   13 1
@<TRIPOS>MOLECULE
*****
   15    14     0     0     0
SMALL
NO_CHARGES

@<TRIPOS>ATOM
      1 O1          1.7605    1.8414    0.0000 O         1 <0>         0.0000
      2 C1          2.4750    1.4289    0.0000 C         1 <0>         0.0000
      3 C2          3.1895    1.8414    0.0000 CT        1 <0>         0.0000
      4 C3          3.9039    1.4289    0.0000 CT        1 <0>         0.0000
      5 C4          4.6184    1.8414    0.0000 CT        1 <0>         0.0000
      6 C5          5.3329    1.4289    0.0000 C         1 <0>         0.0000
      7 O2          6.0474    1.8414    0.0000 O         1 <0>         0.0000
      8 H1          2.4750    1.4289    0.0000 H4        1 <0>         0.0000
      9 H2          3.1895    1.8414    0.0000 HC        1 <0>         0.0000
     10 H3          3.1895    1.8414    0.0000 HC        1 <0>         0.0000
     11 H4          3.9039    1.4289    0.0000 HC        1 <0>         0.0000
     12 H5          3.9039    1.4289    0.0000 HC        1 <0>         0.0000
     13 H6          4.6184    1.8414    0.0000 HC        1 <0>         0.0000
     14 H7          4.6184    1.8414    0.0000 HC        1 <0>         0.0000
     15 H8          5.3329    1.4289    0.0000 H4        1 <0>         0.0000
@<TRIPOS>BOND
     1    1    2 2
     2    2    3 1
     3    3    4 1
     4    4    5 1
     5    5    6 1
     6    6    7 2
     7    2    8 1
     8    3    9 1
     9    3   10 1
    10    4   11 1
    11    4   12 1
    12    5   13 1
    13    5   14 1
    14    6   15 1
@<TRIPOS>MOLECULE
*****
   18    17     0     0     0
SMALL
NO_CHARGES

@<TRIPOS>ATOM
      1 O1         -0.1914    0.7145    0.0000 OH        1 <0>         0.0000
      2 C1          0.5230    1.1270    0.0000 CT        1 <0>         0.0000
      3 C2          1.2375    0.7145    0.0000 CT        1 <0>         0.0000
      4 O2          1.2375   -0.1105    0.0000 OH        1 <0>         0.0000
      5 C3          1.9520    1.1270    0.0000 CT        1 <0>         0.0000
      6 O3          1.9520    1.9520    0.0000 OH        1 <0>         0.0000
      7 C4          2.6664    0.7145    0.0000 CT        1 <0>         0.0000
      8 O4          3.3809    1.1270    0.0000 OH        1 <0>         0.0000
      9 H1         -0.1914    0.7145    0.0000 HO        1 <0>         0.0000
     10 H2          0.5230    1.1270    0.0000 H1        1 <0>         0.0000
     11 H3          0.5230    1.1270    0.0000 H1        1 <0>         0.0000
     12 H4          1.2375    0.7145    0.0000 H1        1 <0>         0.0000
     13 H5          1.2375   -0.1105    0.0000 HO        1 <0>         0.0000
     14 H6          1.9520    1.1270    0.0000 H1        1 <0>         0.0000
     15 H7          1.9520    1.9520    0.0000 HO        1 <0>         0.0000
     16 H8          2.6664    0.7145    0.0000 H1        1 <0>         0.0000
     17 H9          2.6664    0.7145    0.0000 H1        1 <0>         0.0000
     18 H10         3.3809    1.1270    0.0000 HO        1 <0>         0.0000
@<TRIPOS>BOND
     1    1    2 1
     2    2    3 1
     3    3    4 1
     4    3    5 1
     5    5    6 1
     6    5    7 1
     7    7    8 1
     8    1    9 1
     9    2   10 1
    10    2   11 1
    11    3   12 1
    12    4   13 1
    13    5   14 1
    14    6   15 1
    15    7   16 1
    16    7   17 1
    17    8   18 1
@<TRIPOS>MOLECULE
*****
   81    82     0     0     0
SMALL
NO_CHARGES

@<TRIPOS>ATOM
      1 C1        -10.7171   -2.8875    0.0000 CT        1 <0>         0.0000
      2 C2        -10.0026   -2.4750    0.0000 CT        1 <0>         0.0000
      3 C3         -9.2881   -2.8875    0.0000 CT        1 <0>         0.0000
      4 C4         -8.5737   -2.4750    0.0000 CT        1 <0>         0.0000
      5 C5         -7.8592   -2.8875    0.0000 CT        1 <0>         0.0000
      6 C6         -7.1447   -2.4750    0.0000 CT        1 <0>         0.0000
      7 C7         -6.4302   -2.8875    0.0000 CT        1 <0>         0.0000
      8 C8         -5.7158   -2.4750    0.0000 CT        1 <0>         0.0000
      9 C9         -5.0013   -2.8875    0.0000 CT        1 <0>         0.0000
     10 C10        -4.2868   -2.4750    0.0000 CT        1 <0>         0.0000
     11 C11        -3.5724   -2.8875    0.0000 CT        1 <0>         0.0000
     12 C12        -2.8579   -2.4750    0.0000 CT        1 <0>         0.0000
     13 O1         -2.1434   -2.8875    0.0000 OS        1 <0>         0.0000
     14 C13        -1.4289   -2.4750    0.0000 CT        1 <0>         0.0000
     15 O2         -0.7145   -2.8875    0.0000 OS        1 <0>         0.0000
     16 C14         0.0000   -2.4750    0.0000 CT        1 <0>         0.0000
     17 C15         0.7145   -2.8875    0.0000 CT        1 <0>         0.0000
     18 O3          1.4289   -2.4750    0.0000 OH        1 <0>         0.0000
     19 C16         0.0000   -1.6500    0.0000 CT        1 <0>         0.0000
     20 O4          0.7145   -1.2375    0.0000 OS        1 <0>         0.0000
     21 C17         0.7145   -0.4125    0.0000 CT        1 <0>         0.0000
     22 O5          0.0000    0.0000    0.0000 OS        1 <0>         0.0000
     23 C18         0.0000    0.8250    0.0000 CT        1 <0>         0.0000
     24 C19        -0.7145    1.2375    0.0000 CT        1 <0>         0.0000
     25 O6         -1.4289    0.8250    0.0000 OH        1 <0>         0.0000
     26 C20         0.7145    1.2375    0.0000 CT        1 <0>         0.0000
     27 O7          0.7145    2.0625    0.0000 OH        1 <0>         0.0000
     28 C21         1.4289    0.8250    0.0000 CT        1 <0>         0.0000
     29 O8          2.1434    1.2375    0.0000 OH        1 <0>         0.0000
     30 C22         1.4289    0.0000    0.0000 CT        1 <0>         0.0000
     31 O9          2.1434   -0.4125    0.0000 OH        1 <0>         0.0000
     32 C23        -0.7145   -1.2375    0.0000 CT        1 <0>         0.0000
     33 O10        -0.7145   -0.4125    0.0000 OH        1 <0>         0.0000
     34 C24        -1.4289   -1.6500    0.0000 CT        1 <0>         0.0000
     35 O11        -2.1434   -1.2375    0.0000 OH        1 <0>         0.0000
     36 H1        -10.7171   -2.8875    0.0000 HC        1 <0>         0.0000
     37 H2        -10.7171   -2.8875    0.0000 HC        1 <0>         0.0000
     38 H3        -10.7171   -2.8875    0.0000 HC        1 <0>         0.0000
     39 H4        -10.0026   -2.4750    0.0000 HC        1 <0>         0.0000
     40 H5        -10.0026   -2.4750    0.0000 HC        1 <0>         0.0000
     41 H6         -9.2881   -2.8875    0.0000 HC        1 <0>         0.0000
     42 H7         -9.2881   -2.8875    0.0000 HC        1 <0>         0.0000
     43 H8         -8.5737   -2.4750    0.0000 HC        1 <0>         0.0000
     44 H9         -8.5737   -2.4750    0.0000 HC        1 <0>         0.0000
     45 H10        -7.8592   -2.8875    0.0000 HC        1 <0>         0.0000
     46 H11        -7.8592   -2.8875    0.0000 HC        1 <0>         0.0000
     47 H12        -7.1447   -2.4750    0.0000 HC        1 <0>         0.0000
     48 H13        -7.1447   -2.4750    0.0000 HC        1 <0>         0.0000
     49 H14        -6.4302   -2.8875    0.0000 HC        1 <0>         0.0000
     50 H15        -6.4302   -2.8875    0.0000 HC        1 <0>         0.0000
     51 H16        -5.7158   -2.4750    0.0000 HC        1 <0>         0.0000
     52 H17        -5.7158   -2.4750    0.0000 HC        1 <0>         0.0000
     53 H18        -5.0013   -2.8875    0.0000 HC        1 <0>         0.0000
     54 H19        -5.0013   -2.8875    0.0000 HC        1 <0>         0.0000
     55 H20        -4.2868   -2.4750    0.0000 HC        1 <0>         0.0000
     56 H21        -4.2868   -2.4750    0.0000 HC        1 <0>         0.0000
     57 H22        -3.5724   -2.8875    0.0000 HC        1 <0>         0.0000
     58 H23        -3.5724   -2.8875    0.0000 HC        1 <0>         0.0000
     59 H24        -2.8579   -2.4750    0.0000 H1        1 <0>         0.0000
     60 H25        -2.8579   -2.4750    0.0000 H1        1 <0>         0.0000
     61 H26        -1.4289   -2.4750    0.0000 H2        1 <0>         0.0000
     62 H27         0.0000   -2.4750    0.0000 H1        1 <0>         0.0000
     63 H28         0.7145   -2.8875    0.0000 H1        1 <0>         0.0000
     64 H29         0.7145   -2.8875    0.0000 H1        1 <0>         0.0000
     65 H30         1.4289   -2.4750    0.0000 HO        1 <0>         0.0000
     66 H31         0.0000   -1.6500    0.0000 H1        1 <0>         0.0000
     67 H32         0.7145   -0.4125    0.0000 H2        1 <0>         0.0000
     68 H33         0.0000    0.8250    0.0000 H1        1 <0>         0.0000
     69 H34        -0.7145    1.2375    0.0000 H1        1 <0>         0.0000
     70 H35        -0.7145    1.2375    0.0000 H1        1 <0>         0.0000
     71 H36        -1.4289    0.8250    0.0000 HO        1 <0>         0.0000
     72 H37         0.7145    1.2375    0.0000 H1        1 <0>         0.0000
     73 H38         0.7145    2.0625    0.0000 HO        1 <0>         0.0000
     74 H39         1.4289    0.8250    0.0000 H1        1 <0>         0.0000
     75 H40         2.1434    1.2375    0.0000 HO        1 <0>         0.0000
     76 H41         1.4289    0.0000    0.0000 H1        1 <0>         0.0000
     77 H42         2.1434   -0.4125    0.0000 HO        1 <0>         0.0000
     78 H43        -0.7145   -1.2375    0.0000 H1        1 <0>         0.0000
     79 H44        -0.7145   -0.4125    0.0000 HO        1 <0>         0.0000
     80 H45        -1.4289   -1.6500    0.0000 H1        1 <0>         0.0000
     81 H46        -2.1434   -1.2375    0.0000 HO        1 <0>         0.0000
@<TRIPOS>BOND
     1    1    2 1
     2    2    3 1
     3    3    4 1
     4    4    5 1
     5    5    6 1
     6    6    7 1
     7    7    8 1
     8    8    9 1
     9    9   10 1
    10   10   11 1
    11   11   12 1
    12   12   13 1
    13   13   14 1
    14   14   15 1
    15   15   16 1
    16   16   17 1
    17   17   18 1
    18   16   19 1
    19   19   20 1
    20   20   21 1
    21   21   22 1
    22   22   23 1
    23   23   24 1
    24   24   25 1
    25   23   26 1
    26   26   27 1
    27   26   28 1
    28   28   29 1
    29   28   30 1
    30   21   30 1
    31   30   31 1
    32   19   32 1
    33   32   33 1
    34   32   34 1
    35   14   34 1
    36   34   35 1
    37    1   36 1
    38    1   37 1
    39    1   38 1
    40    2   39 1
    41    2   40 1
    42    3   41 1
    43    3   42 1
    44    4   43 1
    45    4   44 1
    46    5   45 1
    47    5   46 1
    48    6   47 1
    49    6   48 1
    50    7   49 1
    51    7   50 1
    52    8   51 1
    53    8   52 1
    54    9   53 1
    55    9   54 1
    56   10   55 1
    57   10   56 1
    58   11   57 1
    59   11   58 1
    60   12   59 1
    61   12   60 1
    62   14   61 1
    63   16   62 1
    64   17   63 1
    65   17   64 1
    66   18   65 1
    67   19   66 1
    68   21   67 1
    69   23   68 1
    70   24   69 1
    71   24   70 1
    72   25   71 1
    73   26   72 1
    74   27   73 1
    75   28   74 1
    76   29   75 1
    77   30   76 1
    78   31   77 1
    79   32   78 1
    80   33   79 1
    81   34   80 1
    82   35   81 1
@<TRIPOS>MOLECULE
*****
   44    45     0     0     0
SMALL
NO_CHARGES

@<TRIPOS>ATOM
      1 O1         -1.4289    0.0000    0.0000 OH        1 <0>         0.0000
      2 C1         -0.7145   -0.4125    0.0000 CT        1 <0>         0.0000
      3 C2         -0.7145   -1.2375    0.0000 CT        1 <0>         0.0000
      4 O2          0.0000   -1.6500    0.0000 OS        1 <0>         0.0000
      5 C3          0.0000   -2.4750    0.0000 CT        1 <0>         0.0000
      6 O3          0.7145   -2.8875    0.0000 OS        1 <0>         0.0000
      7 C4          1.4289   -2.4750    0.0000 CT        1 <0>         0.0000
      8 C5          1.4289   -1.6500    0.0000 CT        1 <0>         0.0000
      9 O4          0.7145   -1.2375    0.0000 OH        1 <0>         0.0000
     10 C6          2.1434   -1.2375    0.0000 CT        1 <0>         0.0000
     11 C7          2.8579   -1.6500    0.0000 CT        1 <0>         0.0000
     12 O5          3.5724   -1.2375    0.0000 OH        1 <0>         0.0000
     13 O6          2.8579   -2.4750    0.0000 OS        1 <0>         0.0000
     14 C8          2.1434   -2.8875    0.0000 CT        1 <0>         0.0000
     15 C9          2.1434   -3.7125    0.0000 CT        1 <0>         0.0000
     16 O7          1.4289   -4.1250    0.0000 OH        1 <0>         0.0000
     17 C10        -0.7145   -2.8875    0.0000 CT        1 <0>         0.0000
     18 O8         -0.7145   -3.7125    0.0000 OH        1 <0>         0.0000
     19 C11        -1.4289   -2.4750    0.0000 CT        1 <0>         0.0000
     20 O9         -2.1434   -2.8875    0.0000 OH        1 <0>         0.0000
     21 C12        -1.4289   -1.6500    0.0000 CT        1 <0>         0.0000
     22 O10        -2.1434   -1.2375    0.0000 OH        1 <0>         0.0000
     23 H1         -1.4289    0.0000    0.0000 HO        1 <0>         0.0000
     24 H2         -0.7145   -0.4125    0.0000 H1        1 <0>         0.0000
     25 H3         -0.7145   -0.4125    0.0000 H1        1 <0>         0.0000
     26 H4         -0.7145   -1.2375    0.0000 H1        1 <0>         0.0000
     27 H5          0.0000   -2.4750    0.0000 H2        1 <0>         0.0000
     28 H6          1.4289   -2.4750    0.0000 H1        1 <0>         0.0000
     29 H7          1.4289   -1.6500    0.0000 H1        1 <0>         0.0000
     30 H8          0.7145   -1.2375    0.0000 HO        1 <0>         0.0000
     31 H9          2.1434   -1.2375    0.0000 HC        1 <0>         0.0000
     32 H10         2.1434   -1.2375    0.0000 HC        1 <0>         0.0000
     33 H11         2.8579   -1.6500    0.0000 H2        1 <0>         0.0000
     34 H12         3.5724   -1.2375    0.0000 HO        1 <0>         0.0000
     35 H13         2.1434   -2.8875    0.0000 H1        1 <0>         0.0000
     36 H14         2.1434   -3.7125    0.0000 H1        1 <0>         0.0000
     37 H15         2.1434   -3.7125    0.0000 H1        1 <0>         0.0000
     38 H16         1.4289   -4.1250    0.0000 HO        1 <0>         0.0000
     39 H17        -0.7145   -2.8875    0.0000 H1        1 <0>         0.0000
     40 H18        -0.7145   -3.7125    0.0000 HO        1 <0>         0.0000
     41 H19        -1.4289   -2.4750    0.0000 H1        1 <0>         0.0000
     42 H20        -2.1434   -2.8875    0.0000 HO        1 <0>         0.0000
     43 H21        -1.4289   -1.6500    0.0000 H1        1 <0>         0.0000
     44 H22        -2.1434   -1.2375    0.0000 HO        1 <0>         0.0000
@<TRIPOS>BOND
     1    1    2 1
     2    2    3 1
     3    3    4 1
     4    4    5 1
     5    5    6 1
     6    6    7 1
     7    7    8 1
     8    8    9 1
     9    8   10 1
    10   10   11 1
    11   11   12 1
    12   11   13 1
    13   13   14 1
    14    7   14 1
    15   14   15 1
    16   15   16 1
    17    5   17 1
    18   17   18 1
    19   17   19 1
    20   19   20 1
    21   19   21 1
    22    3   21 1
    23   21   22 1
    24    1   23 1
    25    2   24 1
    26    2   25 1
    27    3   26 1
    28    5   27 1
    29    7   28 1
    30    8   29 1
    31    9   30 1
    32   10   31 1
    33   10   32 1
    34   11   33 1
    35   12   34 1
    36   14   35 1
    37   15   36 1
    38   15   37 1
    39   16   38 1
    40   17   39 1
    41   18   40 1
    42   19   41 1
    43   20   42 1
    44   21   43 1
    45   22   44 1
@<TRIPOS>MOLECULE
*****
   23    23     0     0     0
SMALL
NO_CHARGES

@<TRIPOS>ATOM
      1 C1         -1.7861    1.3333    0.0000 CT        1 <0>         0.0000
      2 C2         -1.0717    0.9207    0.0000 CT        1 <0>         0.0000
      3 O1         -0.3572    1.3332    0.0000 OS        1 <0>         0.0000
      4 C3          0.3572    0.9208    0.0000 CT        1 <0>         0.0000
      5 O2          1.0717    1.3332    0.0000 OH        1 <0>         0.0000
      6 C4          0.3572    0.0957    0.0000 CT        1 <0>         0.0000
      7 O3          1.0717   -0.3168    0.0000 OH        1 <0>         0.0000
      8 C5         -0.3572   -0.3168    0.0000 CT        1 <0>         0.0000
      9 O4         -0.3572   -1.1418    0.0000 OH        1 <0>         0.0000
     10 C6         -1.0717    0.0958    0.0000 CT        1 <0>         0.0000
     11 O5         -1.7862   -0.3167    0.0000 OH        1 <0>         0.0000
     12 H1         -1.7861    1.3333    0.0000 HC        1 <0>         0.0000
     13 H2         -1.7861    1.3333    0.0000 HC        1 <0>         0.0000
     14 H3         -1.7861    1.3333    0.0000 HC        1 <0>         0.0000
     15 H4         -1.0717    0.9207    0.0000 H1        1 <0>         0.0000
     16 H5          0.3572    0.9208    0.0000 H2        1 <0>         0.0000
     17 H6          1.0717    1.3332    0.0000 HO        1 <0>         0.0000
     18 H7          0.3572    0.0957    0.0000 H1        1 <0>         0.0000
     19 H8          1.0717   -0.3168    0.0000 HO        1 <0>         0.0000
     20 H9         -0.3572   -0.3168    0.0000 H1        1 <0>         0.0000
     21 H10        -0.3572   -1.1418    0.0000 HO        1 <0>         0.0000
     22 H11        -1.0717    0.0958    0.0000 H1        1 <0>         0.0000
     23 H12        -1.7862   -0.3167    0.0000 HO        1 <0>         0.0000
@<TRIPOS>BOND
     1    1    2 1
     2    2    3 1
     3    3    4 1
     4    4    5 1
     5    4    6 1
     6    6    7 1
     7    6    8 1
     8    8    9 1
     9    8   10 1
    10    2   10 1
    11   10   11 1
    12    1   12 1
    13    1   13 1
    14    1   14 1
    15    2   15 1
    16    4   16 1
    17    5   17 1
    18    6   18 1
    19    7   19 1
    20    8   20 1
    21    9   21 1
    22   10   22 1
    23   11   23 1
@<TRIPOS>MOLECULE
*****
   19    19     0     0     0
SMALL
NO_CHARGES

@<TRIPOS>ATOM
      1 O1          2.1434    1.2375    0.0000 OH        1 <0>         0.0000
      2 C1          1.4289    0.8250    0.0000 CT        1 <0>         0.0000
      3 C2          1.4289    0.0000    0.0000 CT        1 <0>         0.0000
      4 O2          0.7145   -0.4125    0.0000 OS        1 <0>         0.0000
      5 C3          0.0000    0.0000    0.0000 CM        1 <0>         0.0000
      6 C4          0.0000    0.8250    0.0000 CM        1 <0>         0.0000
      7 C5          0.7145    1.2375    0.0000 CT        1 <0>         0.0000
      8 O3          0.7145    2.0625    0.0000 OH        1 <0>         0.0000
      9 C6         -0.7145   -0.4125    0.0000 C         1 <0>         0.0000
     10 O4         -0.7145   -1.2375    0.0000 OH        1 <0>         0.0000
     11 O5         -1.4289    0.0000    0.0000 O         1 <0>         0.0000
     12 H1          2.1434    1.2375    0.0000 HO        1 <0>         0.0000
     13 H2          1.4289    0.8250    0.0000 H1        1 <0>         0.0000
     14 H3          1.4289    0.0000    0.0000 H1        1 <0>         0.0000
     15 H4          1.4289    0.0000    0.0000 H1        1 <0>         0.0000
     16 H5          0.0000    0.8250    0.0000 HA        1 <0>         0.0000
     17 H6          0.7145    1.2375    0.0000 H1        1 <0>         0.0000
     18 H7          0.7145    2.0625    0.0000 HO        1 <0>         0.0000
     19 H8         -0.7145   -1.2375    0.0000 HO        1 <0>         0.0000
@<TRIPOS>BOND
     1    1    2 1
     2    2    3 1
     3    3    4 1
     4    4    5 1
     5    5    6 2
     6    6    7 1
     7    2    7 1
     8    7    8 1
     9    5    9 1
    10    9   10 1
    11    9   11 2
    12    1   12 1
    13    2   13 1
    14    3   14 1
    15    3   15 1
    16    6   16 1
    17    7   17 1
    18    8   18 1
    19   10   19 1
@<TRIPOS>MOLECULE
*****
   31    32     0     0     0
SMALL
NO_CHARGES

@<TRIPOS>ATOM
      1 O1          2.8579   -1.6500    0.0000 OH        1 <0>         0.0000
      2 C1          2.8579   -2.4750    0.0000 CA        1 <0>         0.0000
      3 C2          3.5724   -2.8875    0.0000 CA        1 <0>         0.0000
      4 C3          3.5724   -3.7125    0.0000 CA        1 <0>         0.0000
      5 C4          2.8579   -4.1250    0.0000 CA        1 <0>         0.0000
      6 C5          2.1434   -3.7125    0.0000 CA        1 <0>         0.0000
      7 C6          2.1434   -2.8875    0.0000 CA        1 <0>         0.0000
      8 C7          2.8579   -4.9500    0.0000 CM        1 <0>         0.0000
      9 C8          2.1434   -5.3625    0.0000 CM        1 <0>         0.0000
     10 C9          2.1434   -6.1875    0.0000 C         1 <0>         0.0000
     11 O2          2.8579   -6.6000    0.0000 O         1 <0>         0.0000
     12 C10         1.4289   -6.6000    0.0000 CA        1 <0>         0.0000
     13 C11         1.4289   -7.4250    0.0000 CA        1 <0>         0.0000
     14 C12         0.7145   -7.8375    0.0000 CA        1 <0>         0.0000
     15 C13         0.0000   -7.4250    0.0000 CA        1 <0>         0.0000
     16 O3         -0.7145   -7.8375    0.0000 OH        1 <0>         0.0000
     17 C14         0.0000   -6.6000    0.0000 CA        1 <0>         0.0000
     18 C15         0.7145   -6.1875    0.0000 CA        1 <0>         0.0000
     19 O4          0.7145   -5.3625    0.0000 OH        1 <0>         0.0000
     20 H1          2.8579   -1.6500    0.0000 HO        1 <0>         0.0000
     21 H2          3.5724   -2.8875    0.0000 HA        1 <0>         0.0000
     22 H3          3.5724   -3.7125    0.0000 HA        1 <0>         0.0000
     23 H4          2.1434   -3.7125    0.0000 HA        1 <0>         0.0000
     24 H5          2.1434   -2.8875    0.0000 HA        1 <0>         0.0000
     25 H6          2.8579   -4.9500    0.0000 HA        1 <0>         0.0000
     26 H7          2.1434   -5.3625    0.0000 HA        1 <0>         0.0000
     27 H8          1.4289   -7.4250    0.0000 HA        1 <0>         0.0000
     28 H9          0.7145   -7.8375    0.0000 HA        1 <0>         0.0000
     29 H10        -0.7145   -7.8375    0.0000 HO        1 <0>         0.0000
     30 H11         0.0000   -6.6000    0.0000 HA        1 <0>         0.0000
     31 H12         0.7145   -5.3625    0.0000 HO        1 <0>         0.0000
@<TRIPOS>BOND
     1    1    2 1
     2    2    3 ar
     3    3    4 ar
     4    4    5 ar
     5    5    6 ar
     6    6    7 ar
     7    2    7 ar
     8    5    8 1
     9    8    9 2
    10    9   10 1
    11   10   11 2
    12   10   12 1
    13   12   13 ar
    14   13   14 ar
    15   14   15 ar
    16   15   16 1
    17   15   17 ar
    18   17   18 ar
    19   12   18 ar
    20   18   19 1
    21    1   20 1
    22    3   21 1
    23    4   22 1
    24    6   23 1
    25    7   24 1
    26    8   25 1
    27    9   26 1
    28   13   27 1
    29   14   28 1
    30   16   29 1
    31   17   30 1
    32   19   31 1
@<TRIPOS>MOLECULE
*****
   23    23     0     0     0
SMALL
NO_CHARGES

@<TRIPOS>ATOM
      1 C1          2.1434    1.2375    0.0000 CT        1 <0>         0.0000
      2 C2          1.4289    0.8250    0.0000 CA        1 <0>         0.0000
      3 C3          1.4289    0.0000    0.0000 CA        1 <0>         0.0000
      4 C4          0.7145   -0.4125    0.0000 CA        1 <0>         0.0000
      5 C5          0.0000    0.0000    0.0000 CA        1 <0>         0.0000
      6 C6          0.0000    0.8250    0.0000 CA        1 <0>         0.0000
      7 C7         -0.7145    1.2375    0.0000 CT        1 <0>         0.0000
      8 C8         -0.7145    2.0625    0.0000 CM        1 <0>         0.0000
      9 C9         -1.4289    2.4750    0.0000 CM        1 <0>         0.0000
     10 C10         0.7145    1.2375    0.0000 CA        1 <0>         0.0000
     11 O1          0.7145    2.0625    0.0000 OH        1 <0>         0.0000
     12 H1          2.1434    1.2375    0.0000 HC        1 <0>         0.0000
     13 H2          2.1434    1.2375    0.0000 HC        1 <0>         0.0000
     14 H3          2.1434    1.2375    0.0000 HC        1 <0>         0.0000
     15 H4          1.4289    0.0000    0.0000 HA        1 <0>         0.0000
     16 H5          0.7145   -0.4125    0.0000 HA        1 <0>         0.0000
     17 H6          0.0000    0.0000    0.0000 HA        1 <0>         0.0000
     18 H7         -0.7145    1.2375    0.0000 HC        1 <0>         0.0000
     19 H8         -0.7145    1.2375    0.0000 HC        1 <0>         0.0000
     20 H9         -0.7145    2.0625    0.0000 HA        1 <0>         0.0000
     21 H10        -1.4289    2.4750    0.0000 HA        1 <0>         0.0000
     22 H11        -1.4289    2.4750    0.0000 HA        1 <0>         0.0000
     23 H12         0.7145    2.0625    0.0000 HO        1 <0>         0.0000
@<TRIPOS>BOND
     1    1    2 1
     2    2    3 ar
     3    3    4 ar
     4    4    5 ar
     5    5    6 ar
     6    6    7 1
     7    7    8 1
     8    8    9 2
     9    6   10 ar
    10    2   10 ar
    11   10   11 1
    12    1   12 1
    13    1   13 1
    14    1   14 1
    15    3   15 1
    16    4   16 1
    17    5   17 1
    18    7   18 1
    19    7   19 1
    20    8   20 1
    21    9   21 1
    22    9   22 1
    23   11   23 1
@<TRIPOS>MOLECULE
*****
   14    14     0     0     0
SMALL
NO_CHARGES

@<TRIPOS>ATOM
      1 C1          1.4289    0.8250    0.0000 CT        1 <0>         0.0000
      2 C2          1.4289    0.0000    0.0000 CT        1 <0>         0.0000
      3 O1          0.7145   -0.4125    0.0000 OS        1 <0>         0.0000
      4 C3          0.0000    0.0000    0.0000 CT        1 <0>         0.0000
      5 C4          0.0000    0.8250    0.0000 CT        1 <0>         0.0000
      6 O2          0.7145    1.2375    0.0000 OS        1 <0>         0.0000
      7 H1          1.4289    0.8250    0.0000 H1        1 <0>         0.0000
      8 H2          1.4289    0.8250    0.0000 H1        1 <0>         0.0000
      9 H3          1.4289    0.0000    0.0000 H1        1 <0>         0.0000
     10 H4          1.4289    0.0000    0.0000 H1        1 <0>         0.0000
     11 H5          0.0000    0.0000    0.0000 H1        1 <0>         0.0000
     12 H6          0.0000    0.0000    0.0000 H1        1 <0>         0.0000
     13 H7          0.0000    0.8250    0.0000 H1        1 <0>         0.0000
     14 H8          0.0000    0.8250    0.0000 H1        1 <0>         0.0000
@<TRIPOS>BOND
     1    1    2 1
     2    2    3 1
     3    3    4 1
     4    4    5 1
     5    5    6 1
     6    1    6 1
     7    1    7 1
     8    1    8 1
     9    2    9 1
    10    2   10 1
    11    4   11 1
    12    4   12 1
    13    5   13 1
    14    5   14 1
@<TRIPOS>MOLECULE
*****
   45    45     0     0     0
SMALL
NO_CHARGES

@<TRIPOS>ATOM
      1 O1         -0.6841   -0.2846    0.0000 OS        1 <0>         0.0000
      2 O2          0.7448   -0.2846    0.0000 OS        1 <0>         0.0000
      3 O3         -0.6841   -2.7596    0.0000 OH        1 <0>         0.0000
      4 O4          0.7448   -1.9346    0.0000 OH        1 <0>         0.0000
      5 O5         -2.1131   -1.9346    0.0000 OH        1 <0>         0.0000
      6 O6          2.1738    0.5403    0.0000 OH        1 <0>         0.0000
      7 O7         -0.6841    0.5403    0.0000 OH        1 <0>         0.0000
      8 O8         -2.1131    0.5403    0.0000 OH        1 <0>         0.0000
      9 O9          0.7448    2.1904    0.0000 OH        1 <0>         0.0000
     10 O10        -0.6841    2.1904    0.0000 OH        1 <0>         0.0000
     11 O11         2.1738    3.0154    0.0000 O         1 <0>         0.0000
     12 C1         -0.6841   -1.9346    0.0000 CT        1 <0>         0.0000
     13 C2          0.0303   -1.5221    0.0000 CT        1 <0>         0.0000
     14 C3         -1.3985   -1.5221    0.0000 CT        1 <0>         0.0000
     15 C4          0.0303   -0.6971    0.0000 CT        1 <0>         0.0000
     16 C5         -1.3985   -0.6971    0.0000 CT        1 <0>         0.0000
     17 C6          0.7448    0.5403    0.0000 CT        1 <0>         0.0000
     18 C7          1.4593    0.9528    0.0000 CT        1 <0>         0.0000
     19 C8          0.0303    0.9528    0.0000 CT        1 <0>         0.0000
     20 C9         -2.1131   -0.2846    0.0000 CT        1 <0>         0.0000
     21 C10         1.4593    1.7779    0.0000 CT        1 <0>         0.0000
     22 C11         0.0303    1.7779    0.0000 CT        1 <0>         0.0000
     23 C12         2.1738    2.1904    0.0000 C         1 <0>         0.0000
     24 H1         -0.6841   -2.7596    0.0000 HO        1 <0>         0.0000
     25 H2          0.7448   -1.9346    0.0000 HO        1 <0>         0.0000
     26 H3         -2.1131   -1.9346    0.0000 HO        1 <0>         0.0000
     27 H4          2.1738    0.5403    0.0000 HO        1 <0>         0.0000
     28 H5         -0.6841    0.5403    0.0000 HO        1 <0>         0.0000
     29 H6         -2.1131    0.5403    0.0000 HO        1 <0>         0.0000
     30 H7          0.7448    2.1904    0.0000 HO        1 <0>         0.0000
     31 H8         -0.6841    2.1904    0.0000 HO        1 <0>         0.0000
     32 H9         -0.6841   -1.9346    0.0000 H1        1 <0>         0.0000
     33 H10         0.0303   -1.5221    0.0000 H1        1 <0>         0.0000
     34 H11        -1.3985   -1.5221    0.0000 H1        1 <0>         0.0000
     35 H12         0.0303   -0.6971    0.0000 H2        1 <0>         0.0000
     36 H13        -1.3985   -0.6971    0.0000 H1        1 <0>         0.0000
     37 H14         0.7448    0.5403    0.0000 H1        1 <0>         0.0000
     38 H15         1.4593    0.9528    0.0000 H1        1 <0>         0.0000
     39 H16         0.0303    0.9528    0.0000 H1        1 <0>         0.0000
     40 H17        -2.1131   -0.2846    0.0000 H1        1 <0>         0.0000
     41 H18        -2.1131   -0.2846    0.0000 H1        1 <0>         0.0000
     42 H19         1.4593    1.7779    0.0000 H1        1 <0>         0.0000
     43 H20         0.0303    1.7779    0.0000 H1        1 <0>         0.0000
     44 H21         0.0303    1.7779    0.0000 H1        1 <0>         0.0000
     45 H22         2.1738    2.1904    0.0000 H4        1 <0>         0.0000
@<TRIPOS>BOND
     1    1   15 1
     2    1   16 1
     3    2   15 1
     4    2   17 1
     5    3   12 1
     6    4   13 1
     7    5   14 1
     8    6   18 1
     9    7   19 1
    10    8   20 1
    11    9   21 1
    12   10   22 1
    13   11   23 2
    14   12   13 1
    15   12   14 1
    16   13   15 1
    17   14   16 1
    18   16   20 1
    19   17   18 1
    20   17   19 1
    21   18   21 1
    22   19   22 1
    23   21   23 1
    24    3   24 1
    25    4   25 1
    26    5   26 1
    27    6   27 1
    28    7   28 1
    29    8   29 1
    30    9   30 1
    31   10   31 1
    32   12   32 1
    33   13   33 1
    34   14   34 1
    35   15   35 1
    36   16   36 1
    37   17   37 1
    38   18   38 1
    39   19   39 1
    40   20   40 1
    41   20   41 1
    42   21   42 1
    43   22   43 1
    44   22   44 1
    45   23   45 1
@<TRIPOS>MOLECULE
B7G
   45    45     0     0     0
SMALL
NO_CHARGES

@<TRIPOS>ATOM
      1 C1         -2.0817    0.9699    0.0000 CT        1 <0>         0.0000
      2 O1         -1.3673    0.5574    0.0000 OS        1 <0>         0.0000
      3 C2         -1.3673   -0.2676    0.0000 CT        1 <0>         0.0000
      4 C3         -2.0817   -0.6801    0.0000 CT        1 <0>         0.0000
      5 C4         -2.7962   -0.2676    0.0000 CT        1 <0>         0.0000
      6 C5         -2.7962    0.5574    0.0000 CT        1 <0>         0.0000
      7 C6         -2.0817    1.7949    0.0000 CT        1 <0>         0.0000
      8 O2         -0.6528   -0.6801    0.0000 OS        1 <0>         0.0000
      9 C7          0.0617   -0.2676    0.0000 CT        1 <0>         0.0000
     10 C8          0.7762   -0.6801    0.0000 CT        1 <0>         0.0000
     11 C9          1.4906   -0.2676    0.0000 CT        1 <0>         0.0000
     12 C10         2.2051   -0.6801    0.0000 CT        1 <0>         0.0000
     13 C11         2.9196   -0.2676    0.0000 CT        1 <0>         0.0000
     14 C12         3.6340   -0.6801    0.0000 CT        1 <0>         0.0000
     15 O3         -2.0817   -1.5051    0.0000 OH        1 <0>         0.0000
     16 O4         -3.5107   -0.6801    0.0000 OH        1 <0>         0.0000
     17 O5         -3.5107    0.9699    0.0000 OH        1 <0>         0.0000
     18 O6         -2.7962    2.2074    0.0000 OH        1 <0>         0.0000
     19 C13         4.3485   -0.2676    0.0000 CT        1 <0>         0.0000
     20 H1         -1.5760    1.2619    0.0000 H1        1 <0>         0.0000
     21 H2         -0.8616    0.0244    0.0000 H2        1 <0>         0.0000
     22 H3         -1.5760   -0.9721    0.0000 H1        1 <0>         0.0000
     23 H4         -2.7962   -0.8515    0.0000 H1        1 <0>         0.0000
     24 H5         -2.7962    1.1413    0.0000 H1        1 <0>         0.0000
     25 H6         -2.0817    1.7949    0.0000 H1        1 <0>         0.0000
     26 H7         -2.0817    1.7949    0.0000 H1        1 <0>         0.0000
     27 H8          0.0617   -0.2676    0.0000 H1        1 <0>         0.0000
     28 H9          0.0617   -0.2676    0.0000 H1        1 <0>         0.0000
     29 H10         0.7762   -0.6801    0.0000 HC        1 <0>         0.0000
     30 H11         0.7762   -0.6801    0.0000 HC        1 <0>         0.0000
     31 H12         1.4906   -0.2676    0.0000 HC        1 <0>         0.0000
     32 H13         1.4906   -0.2676    0.0000 HC        1 <0>         0.0000
     33 H14         2.2051   -0.6801    0.0000 HC        1 <0>         0.0000
     34 H15         2.2051   -0.6801    0.0000 HC        1 <0>         0.0000
     35 H16         2.9196   -0.2676    0.0000 HC        1 <0>         0.0000
     36 H17         2.9196   -0.2676    0.0000 HC        1 <0>         0.0000
     37 H18         3.6340   -0.6801    0.0000 HC        1 <0>         0.0000
     38 H19         3.6340   -0.6801    0.0000 HC        1 <0>         0.0000
     39 H20        -2.0817   -1.5051    0.0000 HO        1 <0>         0.0000
     40 H21        -3.5107   -0.6801    0.0000 HO        1 <0>         0.0000
     41 H22        -3.5107    0.9699    0.0000 HO        1 <0>         0.0000
     42 H23        -2.7962    2.2074    0.0000 HO        1 <0>         0.0000
     43 H24         4.3485   -0.2676    0.0000 HC        1 <0>         0.0000
     44 H25         4.3485   -0.2676    0.0000 HC        1 <0>         0.0000
     45 H26         4.3485   -0.2676    0.0000 HC        1 <0>         0.0000
@<TRIPOS>BOND
     1    1    2 1
     2    1    6 1
     3    1    7 1
     4    1   20 1
     5    2    3 1
     6    3    4 1
     7    3    8 1
     8    3   21 1
     9    4    5 1
    10    4   15 1
    11    4   22 1
    12    5    6 1
    13    5   16 1
    14    5   23 1
    15    6   17 1
    16    6   24 1
    17    7   18 1
    18    8    9 1
    19    9   10 1
    20   10   11 1
    21   11   12 1
    22   12   13 1
    23   13   14 1
    24   14   19 1
    25    7   25 1
    26    7   26 1
    27    9   27 1
    28    9   28 1
    29   10   29 1
    30   10   30 1
    31   11   31 1
    32   11   32 1
    33   12   33 1
    34   12   34 1
    35   13   35 1
    36   13   36 1
    37   14   37 1
    38   14   38 1
    39   15   39 1
    40   16   40 1
    41   17   41 1
    42   18   42 1
    43   19   43 1
    44   19   44 1
    45   19   45 1
@<TRIPOS>MOLECULE
*****
   13    12     0     0     0
SMALL
NO_CHARGES

@<TRIPOS>ATOM
      1 O1          2.0625   -0.7145    0.0000 OH        1 <0>         0.0000
      2 C1          1.2375   -0.7145    0.0000 CT        1 <0>         0.0000
      3 C2          0.8250    0.0000    0.0000 CM        1 <0>         0.0000
      4 C3          0.0000    0.0000    0.0000 CM        1 <0>         0.0000
      5 O2         -0.4125   -0.7145    0.0000 OH        1 <0>         0.0000
      6 O3         -0.4125    0.7145    0.0000 O2        1 <0>         0.0000
      7 C4          0.8250   -1.4289    0.0000 C         1 <0>         0.0000
      8 O4          1.2375   -2.1434    0.0000 O2        1 <0>         0.0000
      9 O5          0.0000   -1.4289    0.0000 O2        1 <0>         0.0000
     10 H1          2.0625   -0.7145    0.0000 HO        1 <0>         0.0000
     11 H2          1.2375   -0.7145    0.0000 H1        1 <0>         0.0000
     12 H3          0.8250    0.0000    0.0000 HA        1 <0>         0.0000
     13 H4         -0.4125   -0.7145    0.0000 HO        1 <0>         0.0000
@<TRIPOS>BOND
     1    1    2 1
     2    2    3 1
     3    3    4 2
     4    4    5 1
     5    4    6 1
     6    2    7 1
     7    7    8 1
     8    7    9 2
     9    1   10 1
    10    2   11 1
    11    3   12 1
    12    5   13 1
@<TRIPOS>MOLECULE
*****
   49    48     0     0     0
SMALL
NO_CHARGES

@<TRIPOS>ATOM
      1 C1          7.9480    5.4138    0.0000 CT        1 <0>         0.0000
      2 C2          8.6625    5.0013    0.0000 CT        1 <0>         0.0000
      3 C3          9.3770    5.4138    0.0000 CT        1 <0>         0.0000
      4 C4         10.0914    5.0013    0.0000 CT        1 <0>         0.0000
      5 C5         10.8059    5.4138    0.0000 CT        1 <0>         0.0000
      6 C6         11.5204    5.0013    0.0000 CT        1 <0>         0.0000
      7 C7         12.2349    5.4138    0.0000 CT        1 <0>         0.0000
      8 C8         12.9493    5.0013    0.0000 CT        1 <0>         0.0000
      9 C9         13.6638    5.4138    0.0000 CT        1 <0>         0.0000
     10 C10        14.3783    5.0013    0.0000 CT        1 <0>         0.0000
     11 C11        15.0927    5.4138    0.0000 CT        1 <0>         0.0000
     12 C12        15.8072    5.0013    0.0000 CT        1 <0>         0.0000
     13 C13        16.5217    5.4138    0.0000 CT        1 <0>         0.0000
     14 C14        17.2362    5.0013    0.0000 CT        1 <0>         0.0000
     15 C15        17.9506    5.4138    0.0000 CT        1 <0>         0.0000
     16 C16        18.6651    5.0013    0.0000 C         1 <0>         0.0000
     17 O1         19.3796    5.4138    0.0000 O         1 <0>         0.0000
     18 H1          7.9480    5.4138    0.0000 HC        1 <0>         0.0000
     19 H2          7.9480    5.4138    0.0000 HC        1 <0>         0.0000
     20 H3          7.9480    5.4138    0.0000 HC        1 <0>         0.0000
     21 H4          8.6625    5.0013    0.0000 HC        1 <0>         0.0000
     22 H5          8.6625    5.0013    0.0000 HC        1 <0>         0.0000
     23 H6          9.3770    5.4138    0.0000 HC        1 <0>         0.0000
     24 H7          9.3770    5.4138    0.0000 HC        1 <0>         0.0000
     25 H8         10.0914    5.0013    0.0000 HC        1 <0>         0.0000
     26 H9         10.0914    5.0013    0.0000 HC        1 <0>         0.0000
     27 H10        10.8059    5.4138    0.0000 HC        1 <0>         0.0000
     28 H11        10.8059    5.4138    0.0000 HC        1 <0>         0.0000
     29 H12        11.5204    5.0013    0.0000 HC        1 <0>         0.0000
     30 H13        11.5204    5.0013    0.0000 HC        1 <0>         0.0000
     31 H14        12.2349    5.4138    0.0000 HC        1 <0>         0.0000
     32 H15        12.2349    5.4138    0.0000 HC        1 <0>         0.0000
     33 H16        12.9493    5.0013    0.0000 HC        1 <0>         0.0000
     34 H17        12.9493    5.0013    0.0000 HC        1 <0>         0.0000
     35 H18        13.6638    5.4138    0.0000 HC        1 <0>         0.0000
     36 H19        13.6638    5.4138    0.0000 HC        1 <0>         0.0000
     37 H20        14.3783    5.0013    0.0000 HC        1 <0>         0.0000
     38 H21        14.3783    5.0013    0.0000 HC        1 <0>         0.0000
     39 H22        15.0927    5.4138    0.0000 HC        1 <0>         0.0000
     40 H23        15.0927    5.4138    0.0000 HC        1 <0>         0.0000
     41 H24        15.8072    5.0013    0.0000 HC        1 <0>         0.0000
     42 H25        15.8072    5.0013    0.0000 HC        1 <0>         0.0000
     43 H26        16.5217    5.4138    0.0000 HC        1 <0>         0.0000
     44 H27        16.5217    5.4138    0.0000 HC        1 <0>         0.0000
     45 H28        17.2362    5.0013    0.0000 HC        1 <0>         0.0000
     46 H29        17.2362    5.0013    0.0000 HC        1 <0>         0.0000
     47 H30        17.9506    5.4138    0.0000 HC        1 <0>         0.0000
     48 H31        17.9506    5.4138    0.0000 HC        1 <0>         0.0000
     49 H32        18.6651    5.0013    0.0000 H4        1 <0>         0.0000
@<TRIPOS>BOND
     1    1    2 1
     2    2    3 1
     3    3    4 1
     4    4    5 1
     5    5    6 1
     6    6    7 1
     7    7    8 1
     8    8    9 1
     9    9   10 1
    10   10   11 1
    11   11   12 1
    12   12   13 1
    13   13   14 1
    14   14   15 1
    15   15   16 1
    16   16   17 2
    17    1   18 1
    18    1   19 1
    19    1   20 1
    20    2   21 1
    21    2   22 1
    22    3   23 1
    23    3   24 1
    24    4   25 1
    25    4   26 1
    26    5   27 1
    27    5   28 1
    28    6   29 1
    29    6   30 1
    30    7   31 1
    31    7   32 1
    32    8   33 1
    33    8   34 1
    34    9   35 1
    35    9   36 1
    36   10   37 1
    37   10   38 1
    38   11   39 1
    39   11   40 1
    40   12   41 1
    41   12   42 1
    42   13   43 1
    43   13   44 1
    44   14   45 1
    45   14   46 1
    46   15   47 1
    47   15   48 1
    48   16   49 1
@<TRIPOS>MOLECULE
*****
   20    20     0     0     0
SMALL
NO_CHARGES

@<TRIPOS>ATOM
      1 O1         -1.4289   -1.6500    0.0000 OH        1 <0>         0.0000
      2 C1         -0.7145   -1.2375    0.0000 CT        1 <0>         0.0000
      3 C2         -0.7145   -0.4125    0.0000 CT        1 <0>         0.0000
      4 O2          0.0000    0.0000    0.0000 OS        1 <0>         0.0000
      5 C3          0.7145   -0.4125    0.0000 CT        1 <0>         0.0000
      6 O3          1.4289    0.0000    0.0000 OH        1 <0>         0.0000
      7 C4          0.7145   -1.2375    0.0000 CT        1 <0>         0.0000
      8 O4          1.4289   -1.6500    0.0000 OH        1 <0>         0.0000
      9 C5          0.0000   -1.6500    0.0000 CT        1 <0>         0.0000
     10 O5          0.0000   -2.4750    0.0000 OH        1 <0>         0.0000
     11 H1         -1.4289   -1.6500    0.0000 HO        1 <0>         0.0000
     12 H2         -0.7145   -1.2375    0.0000 H1        1 <0>         0.0000
     13 H3         -0.7145   -0.4125    0.0000 H1        1 <0>         0.0000
     14 H4         -0.7145   -0.4125    0.0000 H1        1 <0>         0.0000
     15 H5          0.7145   -0.4125    0.0000 H2        1 <0>         0.0000
     16 H6          1.4289    0.0000    0.0000 HO        1 <0>         0.0000
     17 H7          0.7145   -1.2375    0.0000 H1        1 <0>         0.0000
     18 H8          1.4289   -1.6500    0.0000 HO        1 <0>         0.0000
     19 H9          0.0000   -1.6500    0.0000 H1        1 <0>         0.0000
     20 H10         0.0000   -2.4750    0.0000 HO        1 <0>         0.0000
@<TRIPOS>BOND
     1    1    2 1
     2    2    3 1
     3    3    4 1
     4    4    5 1
     5    5    6 1
     6    5    7 1
     7    7    8 1
     8    7    9 1
     9    2    9 1
    10    9   10 1
    11    1   11 1
    12    2   12 1
    13    3   13 1
    14    3   14 1
    15    5   15 1
    16    6   16 1
    17    7   17 1
    18    8   18 1
    19    9   19 1
    20   10   20 1
@<TRIPOS>MOLECULE
PPT
   24    24     0     0     0
SMALL
NO_CHARGES

@<TRIPOS>ATOM
      1 C1          0.9141    1.1356    0.0000 CT        1 <0>         0.0000
      2 C2          1.6286    1.5481    0.0000 C         1 <0>         0.0000
      3 O1          1.6286    2.3731    0.0000 O         1 <0>         0.0000
      4 O2          2.3431    1.1356    0.0000 OH        1 <0>         0.0000
      5 C3          0.9141    0.3106    0.0000 CT        1 <0>         0.0000
      6 C4          0.1997   -0.1019    0.0000 CA        1 <0>         0.0000
      7 C5          0.1997   -0.9269    0.0000 CA        1 <0>         0.0000
      8 C6         -0.5148    0.3106    0.0000 CA        1 <0>         0.0000
      9 C7         -0.5148   -1.3394    0.0000 CA        1 <0>         0.0000
     10 C8         -1.2293   -0.1019    0.0000 CA        1 <0>         0.0000
     11 C9         -1.2293   -0.9269    0.0000 CA        1 <0>         0.0000
     12 C10        -1.9437   -1.3394    0.0000 CT        1 <0>         0.0000
     13 H1          0.9141    1.1356    0.0000 HC        1 <0>         0.0000
     14 H2          0.9141    1.1356    0.0000 HC        1 <0>         0.0000
     15 H3          2.3431    1.1356    0.0000 HO        1 <0>         0.0000
     16 H4          0.9141    0.3106    0.0000 HC        1 <0>         0.0000
     17 H5          0.9141    0.3106    0.0000 HC        1 <0>         0.0000
     18 H6          0.1997   -0.9269    0.0000 HA        1 <0>         0.0000
     19 H7         -0.5148    0.3106    0.0000 HA        1 <0>         0.0000
     20 H8         -0.5148   -1.3394    0.0000 HA        1 <0>         0.0000
     21 H9         -1.2293   -0.1019    0.0000 HA        1 <0>         0.0000
     22 H10        -1.9437   -1.3394    0.0000 HC        1 <0>         0.0000
     23 H11        -1.9437   -1.3394    0.0000 HC        1 <0>         0.0000
     24 H12        -1.9437   -1.3394    0.0000 HC        1 <0>         0.0000
@<TRIPOS>BOND
     1    1    2 1
     2    1    5 1
     3    2    3 2
     4    2    4 1
     5    5    6 1
     6    6    7 ar
     7    6    8 ar
     8    7    9 ar
     9    8   10 ar
    10    9   11 ar
    11   10   11 ar
    12   11   12 1
    13    1   13 1
    14    1   14 1
    15    4   15 1
    16    5   16 1
    17    5   17 1
    18    7   18 1
    19    8   19 1
    20    9   20 1
    21   10   21 1
    22   12   22 1
    23   12   23 1
    24   12   24 1
@<TRIPOS>MOLECULE
14101
   18    19     0     0     0
SMALL
NO_CHARGES

@<TRIPOS>ATOM
      1 O1          3.3723    1.1982    0.0000 OS        1 <0>         0.0000
      2 O2          3.3723   -1.2261    0.0000 OH        1 <0>         0.0000
      3 O3          1.9725    1.1982    0.0000 O         1 <0>         0.0000
      4 C1          4.0723   -0.0139    0.0000 CB        1 <0>         0.0000
      5 C2          4.0723    0.7941    0.0000 CB        1 <0>         0.0000
      6 C3          3.3723   -0.4181    0.0000 CA        1 <0>         0.0000
      7 C4          4.7947   -0.4461    0.0000 CA        1 <0>         0.0000
      8 C5          4.7947    1.2261    0.0000 CA        1 <0>         0.0000
      9 C6          2.6725   -0.0139    0.0000 CA        1 <0>         0.0000
     10 C7          5.5269   -0.0308    0.0000 CA        1 <0>         0.0000
     11 C8          5.5269    0.8109    0.0000 CA        1 <0>         0.0000
     12 C9          2.6725    0.7941    0.0000 C         1 <0>         0.0000
     13 H1          3.3723   -1.2261    0.0000 HO        1 <0>         0.0000
     14 H2          4.7947   -0.4461    0.0000 HA        1 <0>         0.0000
     15 H3          4.7947    1.2261    0.0000 HA        1 <0>         0.0000
     16 H4          2.6725   -0.0139    0.0000 HA        1 <0>         0.0000
     17 H5          5.5269   -0.0308    0.0000 HA        1 <0>         0.0000
     18 H6          5.5269    0.8109    0.0000 HA        1 <0>         0.0000
@<TRIPOS>BOND
     1    1    5 1
     2    1   12 1
     3    2    6 1
     4    3   12 2
     5    4    5 ar
     6    4    6 1
     7    4    7 ar
     8    5    8 ar
     9    6    9 2
    10    7   10 ar
    11    8   11 ar
    12    9   12 1
    13   10   11 ar
    14    2   13 1
    15    7   14 1
    16    8   15 1
    17    9   16 1
    18   10   17 1
    19   11   18 1
@<TRIPOS>MOLECULE
*****
  162   163     0     0     0
SMALL
NO_CHARGES

@<TRIPOS>ATOM
      1 C1          4.2868  -16.5000    0.0000 CT        1 <0>         0.0000
      2 C2          5.0013  -16.0875    0.0000 CT        1 <0>         0.0000
      3 C3          5.7158  -16.5000    0.0000 CT        1 <0>         0.0000
      4 C4          6.4302  -16.0875    0.0000 CT        1 <0>         0.0000
      5 C5          7.1447  -16.5000    0.0000 CT        1 <0>         0.0000
      6 C6          7.8592  -16.0875    0.0000 CT        1 <0>         0.0000
      7 C7          8.5737  -16.5000    0.0000 CT        1 <0>         0.0000
      8 C8          9.2881  -16.0875    0.0000 CT        1 <0>         0.0000
      9 C9         10.0026  -16.5000    0.0000 CT        1 <0>         0.0000
     10 C10        10.7171  -16.0875    0.0000 CT        1 <0>         0.0000
     11 C11        11.4315  -16.5000    0.0000 CT        1 <0>         0.0000
     12 C12        12.1460  -16.0875    0.0000 CT        1 <0>         0.0000
     13 C13        12.8605  -16.5000    0.0000 CT        1 <0>         0.0000
     14 C14        13.5749  -16.0875    0.0000 CT        1 <0>         0.0000
     15 C15        14.2894  -16.5000    0.0000 CT        1 <0>         0.0000
     16 C16        15.0039  -16.0875    0.0000 CT        1 <0>         0.0000
     17 C17        15.7184  -16.5000    0.0000 CT        1 <0>         0.0000
     18 C18        16.4328  -16.0875    0.0000 C         1 <0>         0.0000
     19 O1         16.4328  -15.2625    0.0000 O         1 <0>         0.0000
     20 O2         17.1473  -16.5000    0.0000 OS        1 <0>         0.0000
     21 C19        17.8618  -16.0875    0.0000 CT        1 <0>         0.0000
     22 C20        18.5762  -16.5000    0.0000 CT        1 <0>         0.0000
     23 C21        18.5762  -17.3250    0.0000 CT        1 <0>         0.0000
     24 O3         19.2907  -17.7375    0.0000 OS        1 <0>         0.0000
     25 C22        19.2907  -18.5625    0.0000 CT        1 <0>         0.0000
     26 O4         20.0052  -18.9750    0.0000 OS        1 <0>         0.0000
     27 C23        20.0052  -19.8000    0.0000 CT        1 <0>         0.0000
     28 C24        20.7197  -20.2125    0.0000 CT        1 <0>         0.0000
     29 O5         21.4341  -19.8000    0.0000 OS        1 <0>         0.0000
     30 C25        22.1486  -20.2125    0.0000 CT        1 <0>         0.0000
     31 O6         22.8631  -19.8000    0.0000 OS        1 <0>         0.0000
     32 C26        23.5775  -20.2125    0.0000 CT        1 <0>         0.0000
     33 C27        24.2920  -19.8000    0.0000 CT        1 <0>         0.0000
     34 O7         25.0065  -20.2125    0.0000 OH        1 <0>         0.0000
     35 C28        23.5775  -21.0375    0.0000 CT        1 <0>         0.0000
     36 O8         24.2920  -21.4500    0.0000 OH        1 <0>         0.0000
     37 C29        22.8631  -21.4500    0.0000 CT        1 <0>         0.0000
     38 O9         22.8631  -22.2750    0.0000 OH        1 <0>         0.0000
     39 C30        22.1486  -21.0375    0.0000 CT        1 <0>         0.0000
     40 O10        21.4341  -21.4500    0.0000 OH        1 <0>         0.0000
     41 C31        19.2907  -20.2125    0.0000 CT        1 <0>         0.0000
     42 O11        19.2907  -21.0375    0.0000 OH        1 <0>         0.0000
     43 C32        18.5762  -19.8000    0.0000 CT        1 <0>         0.0000
     44 O12        17.8618  -20.2125    0.0000 OH        1 <0>         0.0000
     45 C33        18.5762  -18.9750    0.0000 CT        1 <0>         0.0000
     46 O13        17.8618  -18.5625    0.0000 OH        1 <0>         0.0000
     47 O14        19.2907  -16.0875    0.0000 OS        1 <0>         0.0000
     48 C34        20.0052  -16.5000    0.0000 C         1 <0>         0.0000
     49 O15        20.0052  -17.3250    0.0000 O         1 <0>         0.0000
     50 C35        20.7197  -16.0875    0.0000 CT        1 <0>         0.0000
     51 C36        21.4341  -16.5000    0.0000 CT        1 <0>         0.0000
     52 C37        22.1486  -16.0875    0.0000 CT        1 <0>         0.0000
     53 C38        22.8631  -16.5000    0.0000 CT        1 <0>         0.0000
     54 C39        23.5775  -16.0875    0.0000 CT        1 <0>         0.0000
     55 C40        24.2920  -16.5000    0.0000 CT        1 <0>         0.0000
     56 C41        25.0065  -16.0875    0.0000 CT        1 <0>         0.0000
     57 C42        25.7210  -16.5000    0.0000 CT        1 <0>         0.0000
     58 C43        26.4354  -16.0875    0.0000 CT        1 <0>         0.0000
     59 C44        27.1499  -16.5000    0.0000 CT        1 <0>         0.0000
     60 C45        27.8644  -16.0875    0.0000 CT        1 <0>         0.0000
     61 C46        28.5788  -16.5000    0.0000 CT        1 <0>         0.0000
     62 C47        29.2933  -16.0875    0.0000 CT        1 <0>         0.0000
     63 C48        30.0078  -16.5000    0.0000 CT        1 <0>         0.0000
     64 C49        30.7223  -16.0875    0.0000 CT        1 <0>         0.0000
     65 C50        31.4367  -16.5000    0.0000 CT        1 <0>         0.0000
     66 C51        32.1512  -16.0875    0.0000 CT        1 <0>         0.0000
     67 H1          4.2868  -16.5000    0.0000 HC        1 <0>         0.0000
     68 H2          4.2868  -16.5000    0.0000 HC        1 <0>         0.0000
     69 H3          4.2868  -16.5000    0.0000 HC        1 <0>         0.0000
     70 H4          5.0013  -16.0875    0.0000 HC        1 <0>         0.0000
     71 H5          5.0013  -16.0875    0.0000 HC        1 <0>         0.0000
     72 H6          5.7158  -16.5000    0.0000 HC        1 <0>         0.0000
     73 H7          5.7158  -16.5000    0.0000 HC        1 <0>         0.0000
     74 H8          6.4302  -16.0875    0.0000 HC        1 <0>         0.0000
     75 H9          6.4302  -16.0875    0.0000 HC        1 <0>         0.0000
     76 H10         7.1447  -16.5000    0.0000 HC        1 <0>         0.0000
     77 H11         7.1447  -16.5000    0.0000 HC        1 <0>         0.0000
     78 H12         7.8592  -16.0875    0.0000 HC        1 <0>         0.0000
     79 H13         7.8592  -16.0875    0.0000 HC        1 <0>         0.0000
     80 H14         8.5737  -16.5000    0.0000 HC        1 <0>         0.0000
     81 H15         8.5737  -16.5000    0.0000 HC        1 <0>         0.0000
     82 H16         9.2881  -16.0875    0.0000 HC        1 <0>         0.0000
     83 H17         9.2881  -16.0875    0.0000 HC        1 <0>         0.0000
     84 H18        10.0026  -16.5000    0.0000 HC        1 <0>         0.0000
     85 H19        10.0026  -16.5000    0.0000 HC        1 <0>         0.0000
     86 H20        10.7171  -16.0875    0.0000 HC        1 <0>         0.0000
     87 H21        10.7171  -16.0875    0.0000 HC        1 <0>         0.0000
     88 H22        11.4315  -16.5000    0.0000 HC        1 <0>         0.0000
     89 H23        11.4315  -16.5000    0.0000 HC        1 <0>         0.0000
     90 H24        12.1460  -16.0875    0.0000 HC        1 <0>         0.0000
     91 H25        12.1460  -16.0875    0.0000 HC        1 <0>         0.0000
     92 H26        12.8605  -16.5000    0.0000 HC        1 <0>         0.0000
     93 H27        12.8605  -16.5000    0.0000 HC        1 <0>         0.0000
     94 H28        13.5749  -16.0875    0.0000 HC        1 <0>         0.0000
     95 H29        13.5749  -16.0875    0.0000 HC        1 <0>         0.0000
     96 H30        14.2894  -16.5000    0.0000 HC        1 <0>         0.0000
     97 H31        14.2894  -16.5000    0.0000 HC        1 <0>         0.0000
     98 H32        15.0039  -16.0875    0.0000 HC        1 <0>         0.0000
     99 H33        15.0039  -16.0875    0.0000 HC        1 <0>         0.0000
    100 H34        15.7184  -16.5000    0.0000 HC        1 <0>         0.0000
    101 H35        15.7184  -16.5000    0.0000 HC        1 <0>         0.0000
    102 H36        17.8618  -16.0875    0.0000 H1        1 <0>         0.0000
    103 H37        17.8618  -16.0875    0.0000 H1        1 <0>         0.0000
    104 H38        18.5762  -16.5000    0.0000 H1        1 <0>         0.0000
    105 H39        18.5762  -17.3250    0.0000 H1        1 <0>         0.0000
    106 H40        18.5762  -17.3250    0.0000 H1        1 <0>         0.0000
    107 H41        19.2907  -18.5625    0.0000 H2        1 <0>         0.0000
    108 H42        20.0052  -19.8000    0.0000 H1        1 <0>         0.0000
    109 H43        20.7197  -20.2125    0.0000 H1        1 <0>         0.0000
    110 H44        20.7197  -20.2125    0.0000 H1        1 <0>         0.0000
    111 H45        22.1486  -20.2125    0.0000 H2        1 <0>         0.0000
    112 H46        23.5775  -20.2125    0.0000 H1        1 <0>         0.0000
    113 H47        24.2920  -19.8000    0.0000 H1        1 <0>         0.0000
    114 H48        24.2920  -19.8000    0.0000 H1        1 <0>         0.0000
    115 H49        25.0065  -20.2125    0.0000 HO        1 <0>         0.0000
    116 H50        23.5775  -21.0375    0.0000 H1        1 <0>         0.0000
    117 H51        24.2920  -21.4500    0.0000 HO        1 <0>         0.0000
    118 H52        22.8631  -21.4500    0.0000 H1        1 <0>         0.0000
    119 H53        22.8631  -22.2750    0.0000 HO        1 <0>         0.0000
    120 H54        22.1486  -21.0375    0.0000 H1        1 <0>         0.0000
    121 H55        21.4341  -21.4500    0.0000 HO        1 <0>         0.0000
    122 H56        19.2907  -20.2125    0.0000 H1        1 <0>         0.0000
    123 H57        19.2907  -21.0375    0.0000 HO        1 <0>         0.0000
    124 H58        18.5762  -19.8000    0.0000 H1        1 <0>         0.0000
    125 H59        17.8618  -20.2125    0.0000 HO        1 <0>         0.0000
    126 H60        18.5762  -18.9750    0.0000 H1        1 <0>         0.0000
    127 H61        17.8618  -18.5625    0.0000 HO        1 <0>         0.0000
    128 H62        20.7197  -16.0875    0.0000 HC        1 <0>         0.0000
    129 H63        20.7197  -16.0875    0.0000 HC        1 <0>         0.0000
    130 H64        21.4341  -16.5000    0.0000 HC        1 <0>         0.0000
    131 H65        21.4341  -16.5000    0.0000 HC        1 <0>         0.0000
    132 H66        22.1486  -16.0875    0.0000 HC        1 <0>         0.0000
    133 H67        22.1486  -16.0875    0.0000 HC        1 <0>         0.0000
    134 H68        22.8631  -16.5000    0.0000 HC        1 <0>         0.0000
    135 H69        22.8631  -16.5000    0.0000 HC        1 <0>         0.0000
    136 H70        23.5775  -16.0875    0.0000 HC        1 <0>         0.0000
    137 H71        23.5775  -16.0875    0.0000 HC        1 <0>         0.0000
    138 H72        24.2920  -16.5000    0.0000 HC        1 <0>         0.0000
    139 H73        24.2920  -16.5000    0.0000 HC        1 <0>         0.0000
    140 H74        25.0065  -16.0875    0.0000 HC        1 <0>         0.0000
    141 H75        25.0065  -16.0875    0.0000 HC        1 <0>         0.0000
    142 H76        25.7210  -16.5000    0.0000 HC        1 <0>         0.0000
    143 H77        25.7210  -16.5000    0.0000 HC        1 <0>         0.0000
    144 H78        26.4354  -16.0875    0.0000 HC        1 <0>         0.0000
    145 H79        26.4354  -16.0875    0.0000 HC        1 <0>         0.0000
    146 H80        27.1499  -16.5000    0.0000 HC        1 <0>         0.0000
    147 H81        27.1499  -16.5000    0.0000 HC        1 <0>         0.0000
    148 H82        27.8644  -16.0875    0.0000 HC        1 <0>         0.0000
    149 H83        27.8644  -16.0875    0.0000 HC        1 <0>         0.0000
    150 H84        28.5788  -16.5000    0.0000 HC        1 <0>         0.0000
    151 H85        28.5788  -16.5000    0.0000 HC        1 <0>         0.0000
    152 H86        29.2933  -16.0875    0.0000 HC        1 <0>         0.0000
    153 H87        29.2933  -16.0875    0.0000 HC        1 <0>         0.0000
    154 H88        30.0078  -16.5000    0.0000 HC        1 <0>         0.0000
    155 H89        30.0078  -16.5000    0.0000 HC        1 <0>         0.0000
    156 H90        30.7223  -16.0875    0.0000 HC        1 <0>         0.0000
    157 H91        30.7223  -16.0875    0.0000 HC        1 <0>         0.0000
    158 H92        31.4367  -16.5000    0.0000 HC        1 <0>         0.0000
    159 H93        31.4367  -16.5000    0.0000 HC        1 <0>         0.0000
    160 H94        32.1512  -16.0875    0.0000 HC        1 <0>         0.0000
    161 H95        32.1512  -16.0875    0.0000 HC        1 <0>         0.0000
    162 H96        32.1512  -16.0875    0.0000 HC        1 <0>         0.0000
@<TRIPOS>BOND
     1    1    2 1
     2    2    3 1
     3    3    4 1
     4    4    5 1
     5    5    6 1
     6    6    7 1
     7    7    8 1
     8    8    9 1
     9    9   10 1
    10   10   11 1
    11   11   12 1
    12   12   13 1
    13   13   14 1
    14   14   15 1
    15   15   16 1
    16   16   17 1
    17   17   18 1
    18   18   19 2
    19   18   20 1
    20   20   21 1
    21   21   22 1
    22   22   23 1
    23   23   24 1
    24   24   25 1
    25   25   26 1
    26   26   27 1
    27   27   28 1
    28   28   29 1
    29   29   30 1
    30   30   31 1
    31   31   32 1
    32   32   33 1
    33   33   34 1
    34   32   35 1
    35   35   36 1
    36   35   37 1
    37   37   38 1
    38   37   39 1
    39   30   39 1
    40   39   40 1
    41   27   41 1
    42   41   42 1
    43   41   43 1
    44   43   44 1
    45   43   45 1
    46   25   45 1
    47   45   46 1
    48   22   47 1
    49   47   48 1
    50   48   49 2
    51   48   50 1
    52   50   51 1
    53   51   52 1
    54   52   53 1
    55   53   54 1
    56   54   55 1
    57   55   56 1
    58   56   57 1
    59   57   58 1
    60   58   59 1
    61   59   60 1
    62   60   61 1
    63   61   62 1
    64   62   63 1
    65   63   64 1
    66   64   65 1
    67   65   66 1
    68    1   67 1
    69    1   68 1
    70    1   69 1
    71    2   70 1
    72    2   71 1
    73    3   72 1
    74    3   73 1
    75    4   74 1
    76    4   75 1
    77    5   76 1
    78    5   77 1
    79    6   78 1
    80    6   79 1
    81    7   80 1
    82    7   81 1
    83    8   82 1
    84    8   83 1
    85    9   84 1
    86    9   85 1
    87   10   86 1
    88   10   87 1
    89   11   88 1
    90   11   89 1
    91   12   90 1
    92   12   91 1
    93   13   92 1
    94   13   93 1
    95   14   94 1
    96   14   95 1
    97   15   96 1
    98   15   97 1
    99   16   98 1
   100   16   99 1
   101   17  100 1
   102   17  101 1
   103   21  102 1
   104   21  103 1
   105   22  104 1
   106   23  105 1
   107   23  106 1
   108   25  107 1
   109   27  108 1
   110   28  109 1
   111   28  110 1
   112   30  111 1
   113   32  112 1
   114   33  113 1
   115   33  114 1
   116   34  115 1
   117   35  116 1
   118   36  117 1
   119   37  118 1
   120   38  119 1
   121   39  120 1
   122   40  121 1
   123   41  122 1
   124   42  123 1
   125   43  124 1
   126   44  125 1
   127   45  126 1
   128   46  127 1
   129   50  128 1
   130   50  129 1
   131   51  130 1
   132   51  131 1
   133   52  132 1
   134   52  133 1
   135   53  134 1
   136   53  135 1
   137   54  136 1
   138   54  137 1
   139   55  138 1
   140   55  139 1
   141   56  140 1
   142   56  141 1
   143   57  142 1
   144   57  143 1
   145   58  144 1
   146   58  145 1
   147   59  146 1
   148   59  147 1
   149   60  148 1
   150   60  149 1
   151   61  150 1
   152   61  151 1
   153   62  152 1
   154   62  153 1
   155   63  154 1
   156   63  155 1
   157   64  156 1
   158   64  157 1
   159   65  158 1
   160   65  159 1
   161   66  160 1
   162   66  161 1
   163   66  162 1
@<TRIPOS>MOLECULE
*****
   81    83     0     0     0
SMALL
NO_CHARGES

@<TRIPOS>ATOM
      1 C1          4.0115   -3.7203    0.0000 CT        1 <0>         0.0000
      2 C2          4.5459   -3.0918    0.0000 CT        1 <0>         0.0000
      3 C3          5.3574   -3.2403    0.0000 CT        1 <0>         0.0000
      4 O1          5.2089   -4.0518    0.0000 OH        1 <0>         0.0000
      5 C4          5.5060   -2.4288    0.0000 CT        1 <0>         0.0000
      6 C5          6.2830   -2.1516    0.0000 CT        1 <0>         0.0000
      7 C6          6.1690   -3.3888    0.0000 CT        1 <0>         0.0000
      8 C7          6.7033   -2.7603    0.0000 CT        1 <0>         0.0000
      9 C8          7.5149   -2.9088    0.0000 CT        1 <0>         0.0000
     10 O2          8.0492   -2.2802    0.0000 OS        1 <0>         0.0000
     11 C9          8.8608   -2.4288    0.0000 CT        1 <0>         0.0000
     12 C10         9.1379   -3.2058    0.0000 CT        1 <0>         0.0000
     13 C11         9.3951   -1.8002    0.0000 CT        1 <0>         0.0000
     14 C12         9.2007   -0.9985    0.0000 CT        1 <0>         0.0000
     15 C13         9.9032   -0.5658    0.0000 CT        1 <0>         0.0000
     16 C14        10.5317   -1.1002    0.0000 CT        1 <0>         0.0000
     17 C15        11.3494   -0.9907    0.0000 CM        1 <0>         0.0000
     18 C16        11.8531   -1.6441    0.0000 CT        1 <0>         0.0000
     19 C17        11.5391   -2.4070    0.0000 CT        1 <0>         0.0000
     20 C18        10.7214   -2.5165    0.0000 CT        1 <0>         0.0000
     21 C19        10.2177   -1.8631    0.0000 CT        1 <0>         0.0000
     22 C20         9.8257   -2.5890    0.0000 CT        1 <0>         0.0000
     23 C21        11.6634   -0.2278    0.0000 CM        1 <0>         0.0000
     24 C22        11.1597    0.4256    0.0000 CM        1 <0>         0.0000
     25 C23        11.4737    1.1885    0.0000 CM        1 <0>         0.0000
     26 C24        10.9700    1.8419    0.0000 CT        1 <0>         0.0000
     27 C25        11.2840    2.6048    0.0000 CT        1 <0>         0.0000
     28 O3         10.7803    3.2582    0.0000 OH        1 <0>         0.0000
     29 C26        12.1017    2.7143    0.0000 CT        1 <0>         0.0000
     30 C27        12.6054    2.0610    0.0000 CT        1 <0>         0.0000
     31 O4         13.4231    2.1705    0.0000 OH        1 <0>         0.0000
     32 C28        12.2914    1.2981    0.0000 CM        1 <0>         0.0000
     33 C29        12.7951    0.6447    0.0000 CM        1 <0>         0.0000
     34 H1          4.0115   -3.7203    0.0000 HC        1 <0>         0.0000
     35 H2          4.0115   -3.7203    0.0000 HC        1 <0>         0.0000
     36 H3          4.0115   -3.7203    0.0000 HC        1 <0>         0.0000
     37 H4          4.5459   -3.0918    0.0000 HC        1 <0>         0.0000
     38 H5          4.5459   -3.0918    0.0000 HC        1 <0>         0.0000
     39 H6          5.2089   -4.0518    0.0000 HO        1 <0>         0.0000
     40 H7          5.5060   -2.4288    0.0000 HC        1 <0>         0.0000
     41 H8          5.5060   -2.4288    0.0000 HC        1 <0>         0.0000
     42 H9          6.2830   -2.1516    0.0000 HC        1 <0>         0.0000
     43 H10         6.2830   -2.1516    0.0000 HC        1 <0>         0.0000
     44 H11         6.2830   -2.1516    0.0000 HC        1 <0>         0.0000
     45 H12         6.1690   -3.3888    0.0000 HC        1 <0>         0.0000
     46 H13         6.1690   -3.3888    0.0000 HC        1 <0>         0.0000
     47 H14         6.7033   -2.7603    0.0000 HC        1 <0>         0.0000
     48 H15         6.7033   -2.7603    0.0000 HC        1 <0>         0.0000
     49 H16         7.5149   -2.9088    0.0000 H1        1 <0>         0.0000
     50 H17         7.5149   -2.9088    0.0000 H1        1 <0>         0.0000
     51 H18         8.8608   -2.4288    0.0000 H1        1 <0>         0.0000
     52 H19         9.1379   -3.2058    0.0000 HC        1 <0>         0.0000
     53 H20         9.1379   -3.2058    0.0000 HC        1 <0>         0.0000
     54 H21         9.1379   -3.2058    0.0000 HC        1 <0>         0.0000
     55 H22         9.3951   -1.8002    0.0000 HC        1 <0>         0.0000
     56 H23         9.2007   -0.9985    0.0000 HC        1 <0>         0.0000
     57 H24         9.2007   -0.9985    0.0000 HC        1 <0>         0.0000
     58 H25         9.9032   -0.5658    0.0000 HC        1 <0>         0.0000
     59 H26         9.9032   -0.5658    0.0000 HC        1 <0>         0.0000
     60 H27        10.5317   -1.1002    0.0000 HC        1 <0>         0.0000
     61 H28        11.8531   -1.6441    0.0000 HC        1 <0>         0.0000
     62 H29        11.8531   -1.6441    0.0000 HC        1 <0>         0.0000
     63 H30        11.5391   -2.4070    0.0000 HC        1 <0>         0.0000
     64 H31        11.5391   -2.4070    0.0000 HC        1 <0>         0.0000
     65 H32        10.7214   -2.5165    0.0000 HC        1 <0>         0.0000
     66 H33        10.7214   -2.5165    0.0000 HC        1 <0>         0.0000
     67 H34         9.8257   -2.5890    0.0000 HC        1 <0>         0.0000
     68 H35         9.8257   -2.5890    0.0000 HC        1 <0>         0.0000
     69 H36         9.8257   -2.5890    0.0000 HC        1 <0>         0.0000
     70 H37        11.6634   -0.2278    0.0000 HA        1 <0>         0.0000
     71 H38        11.1597    0.4256    0.0000 HA        1 <0>         0.0000
     72 H39        10.9700    1.8419    0.0000 HC        1 <0>         0.0000
     73 H40        10.9700    1.8419    0.0000 HC        1 <0>         0.0000
     74 H41        11.2840    2.6048    0.0000 H1        1 <0>         0.0000
     75 H42        10.7803    3.2582    0.0000 HO        1 <0>         0.0000
     76 H43        12.1017    2.7143    0.0000 HC        1 <0>         0.0000
     77 H44        12.1017    2.7143    0.0000 HC        1 <0>         0.0000
     78 H45        12.6054    2.0610    0.0000 H1        1 <0>         0.0000
     79 H46        13.4231    2.1705    0.0000 HO        1 <0>         0.0000
     80 H47        12.7951    0.6447    0.0000 HA        1 <0>         0.0000
     81 H48        12.7951    0.6447    0.0000 HA        1 <0>         0.0000
@<TRIPOS>BOND
     1    1    2 1
     2    2    3 1
     3    3    4 1
     4    3    5 1
     5    5    6 1
     6    3    7 1
     7    7    8 1
     8    8    9 1
     9    9   10 1
    10   10   11 1
    11   11   12 1
    12   11   13 1
    13   13   14 1
    14   14   15 1
    15   15   16 1
    16   16   17 1
    17   17   18 1
    18   18   19 1
    19   19   20 1
    20   20   21 1
    21   13   21 1
    22   16   21 1
    23   21   22 1
    24   17   23 2
    25   23   24 1
    26   24   25 2
    27   25   26 1
    28   26   27 1
    29   27   28 1
    30   27   29 1
    31   29   30 1
    32   30   31 1
    33   30   32 1
    34   25   32 1
    35   32   33 2
    36    1   34 1
    37    1   35 1
    38    1   36 1
    39    2   37 1
    40    2   38 1
    41    4   39 1
    42    5   40 1
    43    5   41 1
    44    6   42 1
    45    6   43 1
    46    6   44 1
    47    7   45 1
    48    7   46 1
    49    8   47 1
    50    8   48 1
    51    9   49 1
    52    9   50 1
    53   11   51 1
    54   12   52 1
    55   12   53 1
    56   12   54 1
    57   13   55 1
    58   14   56 1
    59   14   57 1
    60   15   58 1
    61   15   59 1
    62   16   60 1
    63   18   61 1
    64   18   62 1
    65   19   63 1
    66   19   64 1
    67   20   65 1
    68   20   66 1
    69   22   67 1
    70   22   68 1
    71   22   69 1
    72   23   70 1
    73   24   71 1
    74   26   72 1
    75   26   73 1
    76   27   74 1
    77   28   75 1
    78   29   76 1
    79   29   77 1
    80   30   78 1
    81   31   79 1
    82   33   80 1
    83   33   81 1
@<TRIPOS>MOLECULE
*****
   17    17     0     0     0
SMALL
NO_CHARGES

@<TRIPOS>ATOM
      1 C1          2.1434    1.2375    0.0000 CT        1 <0>         0.0000
      2 C2          1.4289    0.8250    0.0000 CA        1 <0>         0.0000
      3 C3          1.4289    0.0000    0.0000 CA        1 <0>         0.0000
      4 C4          0.7145   -0.4125    0.0000 CA        1 <0>         0.0000
      5 C5          0.0000    0.0000    0.0000 CA        1 <0>         0.0000
      6 C6          0.0000    0.8250    0.0000 CA        1 <0>         0.0000
      7 O1         -0.7145    1.2375    0.0000 OH        1 <0>         0.0000
      8 C7          0.7145    1.2375    0.0000 CA        1 <0>         0.0000
      9 O2          0.7145    2.0625    0.0000 OH        1 <0>         0.0000
     10 H1          2.1434    1.2375    0.0000 HC        1 <0>         0.0000
     11 H2          2.1434    1.2375    0.0000 HC        1 <0>         0.0000
     12 H3          2.1434    1.2375    0.0000 HC        1 <0>         0.0000
     13 H4          1.4289    0.0000    0.0000 HA        1 <0>         0.0000
     14 H5          0.7145   -0.4125    0.0000 HA        1 <0>         0.0000
     15 H6          0.0000    0.0000    0.0000 HA        1 <0>         0.0000
     16 H7         -0.7145    1.2375    0.0000 HO        1 <0>         0.0000
     17 H8          0.7145    2.0625    0.0000 HO        1 <0>         0.0000
@<TRIPOS>BOND
     1    1    2 1
     2    2    3 ar
     3    3    4 ar
     4    4    5 ar
     5    5    6 ar
     6    6    7 1
     7    6    8 ar
     8    2    8 ar
     9    8    9 1
    10    1   10 1
    11    1   11 1
    12    1   12 1
    13    3   13 1
    14    4   14 1
    15    5   15 1
    16    7   16 1
    17    9   17 1
@<TRIPOS>MOLECULE
*****
  100   103     0     0     0
SMALL
NO_CHARGES

@<TRIPOS>ATOM
      1 C1          6.9713    0.6899    0.0000 CJ        1 <0>         0.0000
      2 C2          6.9592    1.5531    0.0000 CJ        1 <0>         0.0000
      3 O1          6.2445    1.1424    0.0000 OS        1 <0>         0.0000
      4 C3          7.6841    0.3188    0.0000 CT        1 <0>         0.0000
      5 C4          6.2568    0.2774    0.0000 CM        1 <0>         0.0000
      6 C5          7.6738    1.9689    0.0000 CT        1 <0>         0.0000
      7 C6          6.2394    1.9649    0.0000 CT        1 <0>         0.0000
      8 C7          8.3936    0.7343    0.0000 CT        1 <0>         0.0000
      9 C8          8.0997   -0.3909    0.0000 CT        1 <0>         0.0000
     10 C9          7.2722   -0.3961    0.0000 CT        1 <0>         0.0000
     11 C10         5.5424    0.6899    0.0000 CM        1 <0>         0.0000
     12 C11         8.3936    1.5570    0.0000 CT        1 <0>         0.0000
     13 C12         4.8279    0.2774    0.0000 CM        1 <0>         0.0000
     14 O2          9.1030    1.9877    0.0000 OH        1 <0>         0.0000
     15 C13         4.1134    0.6899    0.0000 CM        1 <0>         0.0000
     16 C14         4.8279   -0.5476    0.0000 CT        1 <0>         0.0000
     17 C15         3.3990    0.2774    0.0000 CM        1 <0>         0.0000
     18 C16         2.6845    0.6899    0.0000 CM        1 <0>         0.0000
     19 C17         1.9700    0.2774    0.0000 CM        1 <0>         0.0000
     20 C18         1.2555    0.6899    0.0000 CM        1 <0>         0.0000
     21 C19         1.9700   -0.5476    0.0000 CT        1 <0>         0.0000
     22 C20         0.5411    0.2774    0.0000 CM        1 <0>         0.0000
     23 C21        -0.1734    0.6899    0.0000 CM        1 <0>         0.0000
     24 C22        -0.8879    0.2774    0.0000 CM        1 <0>         0.0000
     25 C23        -1.6023    0.6899    0.0000 CM        1 <0>         0.0000
     26 C24        -2.3168    0.2775    0.0000 CM        1 <0>         0.0000
     27 C25        -1.6023    1.5150    0.0000 CT        1 <0>         0.0000
     28 C26        -3.0313    0.6900    0.0000 CM        1 <0>         0.0000
     29 C27        -3.7458    0.2775    0.0000 CM        1 <0>         0.0000
     30 C28        -4.4602    0.6900    0.0000 CM        1 <0>         0.0000
     31 C29        -5.1747    0.2775    0.0000 CM        1 <0>         0.0000
     32 C30        -4.4602    1.5150    0.0000 CT        1 <0>         0.0000
     33 C31        -5.8892    0.6900    0.0000 CM        1 <0>         0.0000
     34 C32        -6.6036    0.2775    0.0000 CJ        1 <0>         0.0000
     35 C33        -6.5901   -0.5673    0.0000 CJ        1 <0>         0.0000
     36 O3         -5.8804   -0.1466    0.0000 OS        1 <0>         0.0000
     37 C34        -7.3099    0.6670    0.0000 CT        1 <0>         0.0000
     38 C35        -7.2996   -0.9879    0.0000 CT        1 <0>         0.0000
     39 C36        -5.8704   -0.9742    0.0000 CT        1 <0>         0.0000
     40 C37        -8.0296    0.2515    0.0000 CT        1 <0>         0.0000
     41 C38        -7.7406    1.3817    0.0000 CT        1 <0>         0.0000
     42 C39        -6.9132    1.3868    0.0000 CT        1 <0>         0.0000
     43 C40        -8.0245   -0.5762    0.0000 CT        1 <0>         0.0000
     44 O4         -8.7340   -0.9968    0.0000 OH        1 <0>         0.0000
     45 H1          6.2568    0.2774    0.0000 HA        1 <0>         0.0000
     46 H2          7.6738    1.9689    0.0000 HC        1 <0>         0.0000
     47 H3          7.6738    1.9689    0.0000 HC        1 <0>         0.0000
     48 H4          6.2394    1.9649    0.0000 HC        1 <0>         0.0000
     49 H5          6.2394    1.9649    0.0000 HC        1 <0>         0.0000
     50 H6          6.2394    1.9649    0.0000 HC        1 <0>         0.0000
     51 H7          8.3936    0.7343    0.0000 HC        1 <0>         0.0000
     52 H8          8.3936    0.7343    0.0000 HC        1 <0>         0.0000
     53 H9          8.0997   -0.3909    0.0000 HC        1 <0>         0.0000
     54 H10         8.0997   -0.3909    0.0000 HC        1 <0>         0.0000
     55 H11         8.0997   -0.3909    0.0000 HC        1 <0>         0.0000
     56 H12         7.2722   -0.3961    0.0000 HC        1 <0>         0.0000
     57 H13         7.2722   -0.3961    0.0000 HC        1 <0>         0.0000
     58 H14         7.2722   -0.3961    0.0000 HC        1 <0>         0.0000
     59 H15         5.5424    0.6899    0.0000 HA        1 <0>         0.0000
     60 H16         8.3936    1.5570    0.0000 H1        1 <0>         0.0000
     61 H17         9.1030    1.9877    0.0000 HO        1 <0>         0.0000
     62 H18         4.1134    0.6899    0.0000 HA        1 <0>         0.0000
     63 H19         4.8279   -0.5476    0.0000 HC        1 <0>         0.0000
     64 H20         4.8279   -0.5476    0.0000 HC        1 <0>         0.0000
     65 H21         4.8279   -0.5476    0.0000 HC        1 <0>         0.0000
     66 H22         3.3990    0.2774    0.0000 HA        1 <0>         0.0000
     67 H23         2.6845    0.6899    0.0000 HA        1 <0>         0.0000
     68 H24         1.2555    0.6899    0.0000 HA        1 <0>         0.0000
     69 H25         1.9700   -0.5476    0.0000 HC        1 <0>         0.0000
     70 H26         1.9700   -0.5476    0.0000 HC        1 <0>         0.0000
     71 H27         1.9700   -0.5476    0.0000 HC        1 <0>         0.0000
     72 H28         0.5411    0.2774    0.0000 HA        1 <0>         0.0000
     73 H29        -0.1734    0.6899    0.0000 HA        1 <0>         0.0000
     74 H30        -0.8879    0.2774    0.0000 HA        1 <0>         0.0000
     75 H31        -2.3168    0.2775    0.0000 HA        1 <0>         0.0000
     76 H32        -1.6023    1.5150    0.0000 HC        1 <0>         0.0000
     77 H33        -1.6023    1.5150    0.0000 HC        1 <0>         0.0000
     78 H34        -1.6023    1.5150    0.0000 HC        1 <0>         0.0000
     79 H35        -3.0313    0.6900    0.0000 HA        1 <0>         0.0000
     80 H36        -3.7458    0.2775    0.0000 HA        1 <0>         0.0000
     81 H37        -5.1747    0.2775    0.0000 HA        1 <0>         0.0000
     82 H38        -4.4602    1.5150    0.0000 HC        1 <0>         0.0000
     83 H39        -4.4602    1.5150    0.0000 HC        1 <0>         0.0000
     84 H40        -4.4602    1.5150    0.0000 HC        1 <0>         0.0000
     85 H41        -5.8892    0.6900    0.0000 HA        1 <0>         0.0000
     86 H42        -7.2996   -0.9879    0.0000 HC        1 <0>         0.0000
     87 H43        -7.2996   -0.9879    0.0000 HC        1 <0>         0.0000
     88 H44        -5.8704   -0.9742    0.0000 HC        1 <0>         0.0000
     89 H45        -5.8704   -0.9742    0.0000 HC        1 <0>         0.0000
     90 H46        -5.8704   -0.9742    0.0000 HC        1 <0>         0.0000
     91 H47        -8.0296    0.2515    0.0000 HC        1 <0>         0.0000
     92 H48        -8.0296    0.2515    0.0000 HC        1 <0>         0.0000
     93 H49        -7.7406    1.3817    0.0000 HC        1 <0>         0.0000
     94 H50        -7.7406    1.3817    0.0000 HC        1 <0>         0.0000
     95 H51        -7.7406    1.3817    0.0000 HC        1 <0>         0.0000
     96 H52        -6.9132    1.3868    0.0000 HC        1 <0>         0.0000
     97 H53        -6.9132    1.3868    0.0000 HC        1 <0>         0.0000
     98 H54        -6.9132    1.3868    0.0000 HC        1 <0>         0.0000
     99 H55        -8.0245   -0.5762    0.0000 H1        1 <0>         0.0000
    100 H56        -8.7340   -0.9968    0.0000 HO        1 <0>         0.0000
@<TRIPOS>BOND
     1    1    2 1
     2    1    3 1
     3    1    4 1
     4    2    6 1
     5    2    7 1
     6    4    8 1
     7    4    9 1
     8    4   10 1
     9    6   12 1
    10   12   14 1
    11   34   35 1
    12   34   36 1
    13   34   37 1
    14   35   38 1
    15   35   39 1
    16   37   40 1
    17   37   41 1
    18   37   42 1
    19   38   43 1
    20   43   44 1
    21    2    3 1
    22    8   12 1
    23   35   36 1
    24   40   43 1
    25   25   27 1
    26    1    5 1
    27    5   11 2
    28   11   13 1
    29   13   15 2
    30   13   16 1
    31   15   17 1
    32   17   18 2
    33   18   19 1
    34   19   20 2
    35   19   21 1
    36   20   22 1
    37   22   23 2
    38   24   25 2
    39   23   24 1
    40   25   26 1
    41   26   28 2
    42   28   29 1
    43   29   30 2
    44   30   31 1
    45   30   32 1
    46   31   33 2
    47   33   34 1
    48    5   45 1
    49    6   46 1
    50    6   47 1
    51    7   48 1
    52    7   49 1
    53    7   50 1
    54    8   51 1
    55    8   52 1
    56    9   53 1
    57    9   54 1
    58    9   55 1
    59   10   56 1
    60   10   57 1
    61   10   58 1
    62   11   59 1
    63   12   60 1
    64   14   61 1
    65   15   62 1
    66   16   63 1
    67   16   64 1
    68   16   65 1
    69   17   66 1
    70   18   67 1
    71   20   68 1
    72   21   69 1
    73   21   70 1
    74   21   71 1
    75   22   72 1
    76   23   73 1
    77   24   74 1
    78   26   75 1
    79   27   76 1
    80   27   77 1
    81   27   78 1
    82   28   79 1
    83   29   80 1
    84   31   81 1
    85   32   82 1
    86   32   83 1
    87   32   84 1
    88   33   85 1
    89   38   86 1
    90   38   87 1
    91   39   88 1
    92   39   89 1
    93   39   90 1
    94   40   91 1
    95   40   92 1
    96   41   93 1
    97   41   94 1
    98   41   95 1
    99   42   96 1
   100   42   97 1
   101   42   98 1
   102   43   99 1
   103   44  100 1
@<TRIPOS>MOLECULE
*****
   57    60     0     0     0
SMALL
NO_CHARGES

@<TRIPOS>ATOM
      1 C1         -4.8171    0.6320    0.0000 CT        1 <0>         0.0000
      2 C2         -4.2868    0.0000    0.0000 CT        1 <0>         0.0000
      3 C3         -3.7565    0.6320    0.0000 CT        1 <0>         0.0000
      4 C4         -5.0013   -0.4125    0.0000 CT        1 <0>         0.0000
      5 C5         -5.0013   -1.2375    0.0000 CT        1 <0>         0.0000
      6 C6         -4.2868   -1.6500    0.0000 CT        1 <0>         0.0000
      7 C7         -4.8171   -2.2820    0.0000 CT        1 <0>         0.0000
      8 C8         -3.7565   -2.2820    0.0000 CT        1 <0>         0.0000
      9 C9         -3.5724   -1.2375    0.0000 CA        1 <0>         0.0000
     10 C10        -3.5724   -0.4125    0.0000 CA        1 <0>         0.0000
     11 C11        -2.8579    0.0000    0.0000 CA        1 <0>         0.0000
     12 C12        -2.1434   -0.4125    0.0000 CA        1 <0>         0.0000
     13 C13        -2.1434   -1.2375    0.0000 CA        1 <0>         0.0000
     14 C14        -2.8579   -1.6500    0.0000 CA        1 <0>         0.0000
     15 C15        -1.4289   -1.6500    0.0000 CT        1 <0>         0.0000
     16 O1         -1.4289   -2.4750    0.0000 OH        1 <0>         0.0000
     17 C16        -0.7145   -1.2375    0.0000 CA        1 <0>         0.0000
     18 C17         0.0000   -1.6500    0.0000 CA        1 <0>         0.0000
     19 C18         0.7145   -1.2375    0.0000 CB        1 <0>         0.0000
     20 C19         0.7145   -0.4125    0.0000 CB        1 <0>         0.0000
     21 C20         0.0000    0.0000    0.0000 CA        1 <0>         0.0000
     22 C21        -0.7145   -0.4125    0.0000 CA        1 <0>         0.0000
     23 C22         1.4289    0.0000    0.0000 CA        1 <0>         0.0000
     24 C23         2.1434   -0.4125    0.0000 CA        1 <0>         0.0000
     25 C24         2.1434   -1.2375    0.0000 CA        1 <0>         0.0000
     26 C25         1.4289   -1.6500    0.0000 CA        1 <0>         0.0000
     27 C26         2.8579    0.0000    0.0000 C         1 <0>         0.0000
     28 O2          2.8579    0.8250    0.0000 OH        1 <0>         0.0000
     29 O3          3.5724   -0.4125    0.0000 O         1 <0>         0.0000
     30 H1         -4.8171    0.6320    0.0000 HC        1 <0>         0.0000
     31 H2         -4.8171    0.6320    0.0000 HC        1 <0>         0.0000
     32 H3         -4.8171    0.6320    0.0000 HC        1 <0>         0.0000
     33 H4         -3.7565    0.6320    0.0000 HC        1 <0>         0.0000
     34 H5         -3.7565    0.6320    0.0000 HC        1 <0>         0.0000
     35 H6         -3.7565    0.6320    0.0000 HC        1 <0>         0.0000
     36 H7         -5.0013   -0.4125    0.0000 HC        1 <0>         0.0000
     37 H8         -5.0013   -0.4125    0.0000 HC        1 <0>         0.0000
     38 H9         -5.0013   -1.2375    0.0000 HC        1 <0>         0.0000
     39 H10        -5.0013   -1.2375    0.0000 HC        1 <0>         0.0000
     40 H11        -4.8171   -2.2820    0.0000 HC        1 <0>         0.0000
     41 H12        -4.8171   -2.2820    0.0000 HC        1 <0>         0.0000
     42 H13        -4.8171   -2.2820    0.0000 HC        1 <0>         0.0000
     43 H14        -3.7565   -2.2820    0.0000 HC        1 <0>         0.0000
     44 H15        -3.7565   -2.2820    0.0000 HC        1 <0>         0.0000
     45 H16        -3.7565   -2.2820    0.0000 HC        1 <0>         0.0000
     46 H17        -2.8579    0.0000    0.0000 HA        1 <0>         0.0000
     47 H18        -2.1434   -0.4125    0.0000 HA        1 <0>         0.0000
     48 H19        -2.8579   -1.6500    0.0000 HA        1 <0>         0.0000
     49 H20        -1.4289   -1.6500    0.0000 H1        1 <0>         0.0000
     50 H21        -1.4289   -2.4750    0.0000 HO        1 <0>         0.0000
     51 H22         0.0000   -1.6500    0.0000 HA        1 <0>         0.0000
     52 H23         0.0000    0.0000    0.0000 HA        1 <0>         0.0000
     53 H24        -0.7145   -0.4125    0.0000 HA        1 <0>         0.0000
     54 H25         1.4289    0.0000    0.0000 HA        1 <0>         0.0000
     55 H26         2.1434   -1.2375    0.0000 HA        1 <0>         0.0000
     56 H27         1.4289   -1.6500    0.0000 HA        1 <0>         0.0000
     57 H28         2.8579    0.8250    0.0000 HO        1 <0>         0.0000
@<TRIPOS>BOND
     1    1    2 1
     2    2    3 1
     3    2    4 1
     4    4    5 1
     5    5    6 1
     6    6    7 1
     7    6    8 1
     8    6    9 1
     9    9   10 ar
    10    2   10 1
    11   10   11 ar
    12   11   12 ar
    13   12   13 ar
    14   13   14 ar
    15    9   14 ar
    16   13   15 1
    17   15   16 1
    18   15   17 1
    19   17   18 ar
    20   18   19 ar
    21   19   20 ar
    22   20   21 ar
    23   21   22 ar
    24   17   22 ar
    25   20   23 ar
    26   23   24 ar
    27   24   25 ar
    28   25   26 ar
    29   19   26 ar
    30   24   27 1
    31   27   28 1
    32   27   29 2
    33    1   30 1
    34    1   31 1
    35    1   32 1
    36    3   33 1
    37    3   34 1
    38    3   35 1
    39    4   36 1
    40    4   37 1
    41    5   38 1
    42    5   39 1
    43    7   40 1
    44    7   41 1
    45    7   42 1
    46    8   43 1
    47    8   44 1
    48    8   45 1
    49   11   46 1
    50   12   47 1
    51   14   48 1
    52   15   49 1
    53   16   50 1
    54   18   51 1
    55   21   52 1
    56   22   53 1
    57   23   54 1
    58   25   55 1
    59   26   56 1
    60   28   57 1
@<TRIPOS>MOLECULE
NAR
   32    34     0     0     0
SMALL
NO_CHARGES

@<TRIPOS>ATOM
      1 C1         -1.7854    0.4721    0.0000 CA        1 <0>         0.0000
      2 C2         -2.4999    0.0596    0.0000 CA        1 <0>         0.0000
      3 C3         -2.4999   -0.7654    0.0000 CA        1 <0>         0.0000
      4 C4         -1.7854   -1.1779    0.0000 CA        1 <0>         0.0000
      5 C5         -1.0710   -0.7654    0.0000 CA        1 <0>         0.0000
      6 C6         -1.0710    0.0596    0.0000 CA        1 <0>         0.0000
      7 C7         -0.3565   -1.1779    0.0000 C         1 <0>         0.0000
      8 C8          0.3580   -0.7654    0.0000 CT        1 <0>         0.0000
      9 C9          0.3580    0.0596    0.0000 CT        1 <0>         0.0000
     10 O1         -0.3565    0.4721    0.0000 OS        1 <0>         0.0000
     11 O2         -0.3565   -2.0029    0.0000 O         1 <0>         0.0000
     12 C10         1.0725    0.4721    0.0000 CA        1 <0>         0.0000
     13 C11         1.0725    1.2971    0.0000 CA        1 <0>         0.0000
     14 C12         1.7869    1.7096    0.0000 CA        1 <0>         0.0000
     15 C13         2.5014    1.2971    0.0000 CA        1 <0>         0.0000
     16 C14         2.5014    0.4721    0.0000 CA        1 <0>         0.0000
     17 C15         1.7869    0.0596    0.0000 CA        1 <0>         0.0000
     18 O3          3.2159    1.7096    0.0000 OH        1 <0>         0.0000
     19 O4         -3.2144    0.4721    0.0000 OH        1 <0>         0.0000
     20 O5         -1.7854   -2.0029    0.0000 OH        1 <0>         0.0000
     21 H1          0.8637   -0.2323    0.0000 H1        1 <0>         0.0000
     22 H2         -1.7854    0.4721    0.0000 HA        1 <0>         0.0000
     23 H3         -2.4999   -0.7654    0.0000 HA        1 <0>         0.0000
     24 H4          0.3580   -0.7654    0.0000 HC        1 <0>         0.0000
     25 H5          0.3580   -0.7654    0.0000 HC        1 <0>         0.0000
     26 H6          1.0725    1.2971    0.0000 HA        1 <0>         0.0000
     27 H7          1.7869    1.7096    0.0000 HA        1 <0>         0.0000
     28 H8          2.5014    0.4721    0.0000 HA        1 <0>         0.0000
     29 H9          1.7869    0.0596    0.0000 HA        1 <0>         0.0000
     30 H10         3.2159    1.7096    0.0000 HO        1 <0>         0.0000
     31 H11        -3.2144    0.4721    0.0000 HO        1 <0>         0.0000
     32 H12        -1.7854   -2.0029    0.0000 HO        1 <0>         0.0000
@<TRIPOS>BOND
     1    1    2 ar
     2    1    6 ar
     3    2    3 ar
     4    2   19 1
     5    3    4 ar
     6    4    5 ar
     7    4   20 1
     8    5    6 ar
     9    5    7 1
    10    6   10 1
    11    7    8 1
    12    7   11 2
    13    8    9 1
    14    9   10 1
    15    9   12 1
    16    9   21 1
    17   12   13 ar
    18   12   17 ar
    19   13   14 ar
    20   14   15 ar
    21   15   16 ar
    22   15   18 1
    23   16   17 ar
    24    1   22 1
    25    3   23 1
    26    8   24 1
    27    8   25 1
    28   13   26 1
    29   14   27 1
    30   16   28 1
    31   17   29 1
    32   18   30 1
    33   19   31 1
    34   20   32 1
@<TRIPOS>MOLECULE
*****
   79    81     0     0     0
SMALL
NO_CHARGES

@<TRIPOS>ATOM
      1 O1         -2.1434   -3.7125    0.0000 OH        1 <0>         0.0000
      2 C1         -1.4289   -4.1250    0.0000 CT        1 <0>         0.0000
      3 C2         -1.4289   -4.9500    0.0000 CT        1 <0>         0.0000
      4 O2         -0.7145   -5.3625    0.0000 OS        1 <0>         0.0000
      5 C3         -0.7145   -6.1875    0.0000 CT        1 <0>         0.0000
      6 O3          0.0000   -6.6000    0.0000 OS        1 <0>         0.0000
      7 C4          0.7145   -6.1875    0.0000 CT        1 <0>         0.0000
      8 C5          0.7145   -5.3625    0.0000 CT        1 <0>         0.0000
      9 O4          0.0000   -4.9500    0.0000 OH        1 <0>         0.0000
     10 C6          1.4289   -4.9500    0.0000 CT        1 <0>         0.0000
     11 O5          1.4289   -4.1250    0.0000 OH        1 <0>         0.0000
     12 C7          2.1434   -5.3625    0.0000 CT        1 <0>         0.0000
     13 O6          2.8579   -4.9500    0.0000 OS        1 <0>         0.0000
     14 C8          3.5724   -5.3625    0.0000 CT        1 <0>         0.0000
     15 C9          4.2868   -4.9500    0.0000 CT        1 <0>         0.0000
     16 C10         5.0013   -5.3625    0.0000 CT        1 <0>         0.0000
     17 C11         5.7158   -4.9500    0.0000 CT        1 <0>         0.0000
     18 C12         6.4302   -5.3625    0.0000 CT        1 <0>         0.0000
     19 C13         7.1447   -4.9500    0.0000 CT        1 <0>         0.0000
     20 C14         7.8592   -5.3625    0.0000 CT        1 <0>         0.0000
     21 C15         8.5737   -4.9500    0.0000 CT        1 <0>         0.0000
     22 C16         9.2881   -5.3625    0.0000 CT        1 <0>         0.0000
     23 C17         9.2881   -6.1875    0.0000 CT        1 <0>         0.0000
     24 C18         8.5737   -6.6000    0.0000 CT        1 <0>         0.0000
     25 C19         7.8592   -6.1875    0.0000 CT        1 <0>         0.0000
     26 O7          2.1434   -6.1875    0.0000 OS        1 <0>         0.0000
     27 C20         1.4289   -6.6000    0.0000 CT        1 <0>         0.0000
     28 C21         1.4289   -7.4250    0.0000 CT        1 <0>         0.0000
     29 O8          0.7145   -7.8375    0.0000 OH        1 <0>         0.0000
     30 C22        -1.4289   -6.6000    0.0000 CT        1 <0>         0.0000
     31 O9         -1.4289   -7.4250    0.0000 OH        1 <0>         0.0000
     32 C23        -2.1434   -6.1875    0.0000 CT        1 <0>         0.0000
     33 O10        -2.8579   -6.6000    0.0000 OH        1 <0>         0.0000
     34 C24        -2.1434   -5.3625    0.0000 CT        1 <0>         0.0000
     35 O11        -2.8579   -4.9500    0.0000 OH        1 <0>         0.0000
     36 H1         -2.1434   -3.7125    0.0000 HO        1 <0>         0.0000
     37 H2         -1.4289   -4.1250    0.0000 H1        1 <0>         0.0000
     38 H3         -1.4289   -4.1250    0.0000 H1        1 <0>         0.0000
     39 H4         -1.4289   -4.9500    0.0000 H1        1 <0>         0.0000
     40 H5         -0.7145   -6.1875    0.0000 H2        1 <0>         0.0000
     41 H6          0.7145   -6.1875    0.0000 H1        1 <0>         0.0000
     42 H7          0.7145   -5.3625    0.0000 H1        1 <0>         0.0000
     43 H8          0.0000   -4.9500    0.0000 HO        1 <0>         0.0000
     44 H9          1.4289   -4.9500    0.0000 H1        1 <0>         0.0000
     45 H10         1.4289   -4.1250    0.0000 HO        1 <0>         0.0000
     46 H11         2.1434   -5.3625    0.0000 H2        1 <0>         0.0000
     47 H12         3.5724   -5.3625    0.0000 H1        1 <0>         0.0000
     48 H13         3.5724   -5.3625    0.0000 H1        1 <0>         0.0000
     49 H14         4.2868   -4.9500    0.0000 HC        1 <0>         0.0000
     50 H15         4.2868   -4.9500    0.0000 HC        1 <0>         0.0000
     51 H16         5.0013   -5.3625    0.0000 HC        1 <0>         0.0000
     52 H17         5.0013   -5.3625    0.0000 HC        1 <0>         0.0000
     53 H18         5.7158   -4.9500    0.0000 HC        1 <0>         0.0000
     54 H19         5.7158   -4.9500    0.0000 HC        1 <0>         0.0000
     55 H20         6.4302   -5.3625    0.0000 HC        1 <0>         0.0000
     56 H21         6.4302   -5.3625    0.0000 HC        1 <0>         0.0000
     57 H22         7.1447   -4.9500    0.0000 HC        1 <0>         0.0000
     58 H23         7.1447   -4.9500    0.0000 HC        1 <0>         0.0000
     59 H24         7.8592   -5.3625    0.0000 HC        1 <0>         0.0000
     60 H25         8.5737   -4.9500    0.0000 HC        1 <0>         0.0000
     61 H26         8.5737   -4.9500    0.0000 HC        1 <0>         0.0000
     62 H27         9.2881   -5.3625    0.0000 HC        1 <0>         0.0000
     63 H28         9.2881   -5.3625    0.0000 HC        1 <0>         0.0000
     64 H29         9.2881   -6.1875    0.0000 HC        1 <0>         0.0000
     65 H30         9.2881   -6.1875    0.0000 HC        1 <0>         0.0000
     66 H31         8.5737   -6.6000    0.0000 HC        1 <0>         0.0000
     67 H32         8.5737   -6.6000    0.0000 HC        1 <0>         0.0000
     68 H33         7.8592   -6.1875    0.0000 HC        1 <0>         0.0000
     69 H34         7.8592   -6.1875    0.0000 HC        1 <0>         0.0000
     70 H35         1.4289   -6.6000    0.0000 H1        1 <0>         0.0000
     71 H36         1.4289   -7.4250    0.0000 H1        1 <0>         0.0000
     72 H37         1.4289   -7.4250    0.0000 H1        1 <0>         0.0000
     73 H38         0.7145   -7.8375    0.0000 HO        1 <0>         0.0000
     74 H39        -1.4289   -6.6000    0.0000 H1        1 <0>         0.0000
     75 H40        -1.4289   -7.4250    0.0000 HO        1 <0>         0.0000
     76 H41        -2.1434   -6.1875    0.0000 H1        1 <0>         0.0000
     77 H42        -2.8579   -6.6000    0.0000 HO        1 <0>         0.0000
     78 H43        -2.1434   -5.3625    0.0000 H1        1 <0>         0.0000
     79 H44        -2.8579   -4.9500    0.0000 HO        1 <0>         0.0000
@<TRIPOS>BOND
     1    1    2 1
     2    2    3 1
     3    3    4 1
     4    4    5 1
     5    5    6 1
     6    6    7 1
     7    7    8 1
     8    8    9 1
     9    8   10 1
    10   10   11 1
    11   10   12 1
    12   12   13 1
    13   13   14 1
    14   14   15 1
    15   15   16 1
    16   16   17 1
    17   17   18 1
    18   18   19 1
    19   19   20 1
    20   20   21 1
    21   21   22 1
    22   22   23 1
    23   23   24 1
    24   24   25 1
    25   20   25 1
    26   12   26 1
    27   26   27 1
    28    7   27 1
    29   27   28 1
    30   28   29 1
    31    5   30 1
    32   30   31 1
    33   30   32 1
    34   32   33 1
    35   32   34 1
    36    3   34 1
    37   34   35 1
    38    1   36 1
    39    2   37 1
    40    2   38 1
    41    3   39 1
    42    5   40 1
    43    7   41 1
    44    8   42 1
    45    9   43 1
    46   10   44 1
    47   11   45 1
    48   12   46 1
    49   14   47 1
    50   14   48 1
    51   15   49 1
    52   15   50 1
    53   16   51 1
    54   16   52 1
    55   17   53 1
    56   17   54 1
    57   18   55 1
    58   18   56 1
    59   19   57 1
    60   19   58 1
    61   20   59 1
    62   21   60 1
    63   21   61 1
    64   22   62 1
    65   22   63 1
    66   23   64 1
    67   23   65 1
    68   24   66 1
    69   24   67 1
    70   25   68 1
    71   25   69 1
    72   27   70 1
    73   28   71 1
    74   28   72 1
    75   29   73 1
    76   30   74 1
    77   31   75 1
    78   32   76 1
    79   33   77 1
    80   34   78 1
    81   35   79 1
@<TRIPOS>MOLECULE
*****
   23    23     0     0     0
SMALL
NO_CHARGES

@<TRIPOS>ATOM
      1 C1         -0.8282    1.2712    0.0000 CT        1 <0>         0.0000
      2 C2         -0.1137    0.8586    0.0000 CT        1 <0>         0.0000
      3 O1          0.5933    1.2841    0.0000 OS        1 <0>         0.0000
      4 C3          1.3152    0.8587    0.0000 CT        1 <0>         0.0000
      5 O2          2.0297    1.2712    0.0000 OH        1 <0>         0.0000
      6 C4          1.3152    0.0337    0.0000 CT        1 <0>         0.0000
      7 O3          2.0297   -0.3789    0.0000 OH        1 <0>         0.0000
      8 C5          0.6007   -0.3788    0.0000 CT        1 <0>         0.0000
      9 O4          0.6007   -1.2039    0.0000 OH        1 <0>         0.0000
     10 C6         -0.1137    0.0337    0.0000 CT        1 <0>         0.0000
     11 O5         -0.8282   -0.3788    0.0000 OH        1 <0>         0.0000
     12 H1         -0.8282    1.2712    0.0000 HC        1 <0>         0.0000
     13 H2         -0.8282    1.2712    0.0000 HC        1 <0>         0.0000
     14 H3         -0.8282    1.2712    0.0000 HC        1 <0>         0.0000
     15 H4         -0.1137    0.8586    0.0000 H1        1 <0>         0.0000
     16 H5          1.3152    0.8587    0.0000 H2        1 <0>         0.0000
     17 H6          2.0297    1.2712    0.0000 HO        1 <0>         0.0000
     18 H7          1.3152    0.0337    0.0000 H1        1 <0>         0.0000
     19 H8          2.0297   -0.3789    0.0000 HO        1 <0>         0.0000
     20 H9          0.6007   -0.3788    0.0000 H1        1 <0>         0.0000
     21 H10         0.6007   -1.2039    0.0000 HO        1 <0>         0.0000
     22 H11        -0.1137    0.0337    0.0000 H1        1 <0>         0.0000
     23 H12        -0.8282   -0.3788    0.0000 HO        1 <0>         0.0000
@<TRIPOS>BOND
     1    1    2 1
     2    2    3 1
     3    3    4 1
     4    4    5 1
     5    4    6 1
     6    6    7 1
     7    6    8 1
     8    8    9 1
     9    8   10 1
    10    2   10 1
    11   10   11 1
    12    1   12 1
    13    1   13 1
    14    1   14 1
    15    2   15 1
    16    4   16 1
    17    5   17 1
    18    6   18 1
    19    7   19 1
    20    8   20 1
    21    9   21 1
    22   10   22 1
    23   11   23 1
@<TRIPOS>MOLECULE
*****
   22    21     0     0     0
SMALL
NO_CHARGES

@<TRIPOS>ATOM
      1 O1          1.0461    1.4289    0.0000 OH        1 <0>         0.0000
      2 C1          1.7605    1.8414    0.0000 CT        1 <0>         0.0000
      3 C2          2.4750    1.4289    0.0000 CT        1 <0>         0.0000
      4 O2          2.4750    0.6039    0.0000 OH        1 <0>         0.0000
      5 C3          3.1895    1.8414    0.0000 CT        1 <0>         0.0000
      6 O3          3.1895    2.6664    0.0000 OH        1 <0>         0.0000
      7 C4          3.9039    1.4289    0.0000 CT        1 <0>         0.0000
      8 C5          4.6184    1.8414    0.0000 C         1 <0>         0.0000
      9 O4          4.6184    2.6664    0.0000 O         1 <0>         0.0000
     10 C6          5.3329    1.4289    0.0000 C         1 <0>         0.0000
     11 O5          6.0474    1.8414    0.0000 OH        1 <0>         0.0000
     12 O6          5.3329    0.6039    0.0000 O         1 <0>         0.0000
     13 H1          1.0461    1.4289    0.0000 HO        1 <0>         0.0000
     14 H2          1.7605    1.8414    0.0000 H1        1 <0>         0.0000
     15 H3          1.7605    1.8414    0.0000 H1        1 <0>         0.0000
     16 H4          2.4750    1.4289    0.0000 H1        1 <0>         0.0000
     17 H5          2.4750    0.6039    0.0000 HO        1 <0>         0.0000
     18 H6          3.1895    1.8414    0.0000 H1        1 <0>         0.0000
     19 H7          3.1895    2.6664    0.0000 HO        1 <0>         0.0000
     20 H8          3.9039    1.4289    0.0000 HC        1 <0>         0.0000
     21 H9          3.9039    1.4289    0.0000 HC        1 <0>         0.0000
     22 H10         6.0474    1.8414    0.0000 HO        1 <0>         0.0000
@<TRIPOS>BOND
     1    1    2 1
     2    2    3 1
     3    3    4 1
     4    3    5 1
     5    5    6 1
     6    5    7 1
     7    7    8 1
     8    8    9 2
     9    8   10 1
    10   10   11 1
    11   10   12 2
    12    1   13 1
    13    2   14 1
    14    2   15 1
    15    3   16 1
    16    4   17 1
    17    5   18 1
    18    6   19 1
    19    7   20 1
    20    7   21 1
    21   11   22 1
@<TRIPOS>MOLECULE
*****
   14    13     0     0     0
SMALL
NO_CHARGES

@<TRIPOS>ATOM
      1 O1          1.9520    1.9520    0.0000 OH        1 <0>         0.0000
      2 C1          1.9520    1.1270    0.0000 CT        1 <0>         0.0000
      3 C2          1.2375    0.7145    0.0000 CT        1 <0>         0.0000
      4 C3          0.5230    1.1270    0.0000 C         1 <0>         0.0000
      5 O2         -0.1914    0.7145    0.0000 OH        1 <0>         0.0000
      6 O3          0.5230    1.9520    0.0000 O         1 <0>         0.0000
      7 C4          2.6664    0.7145    0.0000 C         1 <0>         0.0000
      8 O4          3.3809    1.1270    0.0000 O2        1 <0>         0.0000
      9 O5          2.6664   -0.1105    0.0000 O2        1 <0>         0.0000
     10 H1          1.9520    1.9520    0.0000 HO        1 <0>         0.0000
     11 H2          1.9520    1.1270    0.0000 H1        1 <0>         0.0000
     12 H3          1.2375    0.7145    0.0000 HC        1 <0>         0.0000
     13 H4          1.2375    0.7145    0.0000 HC        1 <0>         0.0000
     14 H5         -0.1914    0.7145    0.0000 HO        1 <0>         0.0000
@<TRIPOS>BOND
     1    1    2 1
     2    2    3 1
     3    3    4 1
     4    4    5 1
     5    4    6 2
     6    2    7 1
     7    7    8 1
     8    7    9 2
     9    1   10 1
    10    2   11 1
    11    3   12 1
    12    3   13 1
    13    5   14 1
@<TRIPOS>MOLECULE
*****
   71    70     0     0     0
SMALL
NO_CHARGES

@<TRIPOS>ATOM
      1 C1         10.9461    7.1447    0.0000 CT        1 <0>         0.0000
      2 C2         11.6605    7.5572    0.0000 CT        1 <0>         0.0000
      3 C3         12.3750    7.1447    0.0000 CT        1 <0>         0.0000
      4 C4         13.0895    7.5572    0.0000 CT        1 <0>         0.0000
      5 C5         13.8039    7.1447    0.0000 CT        1 <0>         0.0000
      6 C6         14.5184    7.5572    0.0000 CT        1 <0>         0.0000
      7 C7         15.2329    7.1447    0.0000 CT        1 <0>         0.0000
      8 C8         15.9474    7.5572    0.0000 CT        1 <0>         0.0000
      9 C9         16.6618    7.1447    0.0000 CT        1 <0>         0.0000
     10 C10        17.3763    7.5572    0.0000 CT        1 <0>         0.0000
     11 C11        18.0908    7.1447    0.0000 CT        1 <0>         0.0000
     12 C12        18.8052    7.5572    0.0000 CT        1 <0>         0.0000
     13 C13        19.5197    7.1447    0.0000 CT        1 <0>         0.0000
     14 C14        20.2342    7.5572    0.0000 CT        1 <0>         0.0000
     15 C15        20.9487    7.1447    0.0000 CT        1 <0>         0.0000
     16 C16        21.6631    7.5572    0.0000 CT        1 <0>         0.0000
     17 C17        22.3776    7.1447    0.0000 CT        1 <0>         0.0000
     18 C18        23.0921    7.5572    0.0000 CT        1 <0>         0.0000
     19 C19        23.8065    7.1447    0.0000 CT        1 <0>         0.0000
     20 C20        24.5210    7.5572    0.0000 CT        1 <0>         0.0000
     21 C21        25.2355    7.1447    0.0000 CT        1 <0>         0.0000
     22 C22        25.9499    7.5572    0.0000 CT        1 <0>         0.0000
     23 C23        26.6644    7.1447    0.0000 C         1 <0>         0.0000
     24 O1         27.3789    7.5572    0.0000 OH        1 <0>         0.0000
     25 O2         26.6644    6.3197    0.0000 O         1 <0>         0.0000
     26 H1         10.9461    7.1447    0.0000 HC        1 <0>         0.0000
     27 H2         10.9461    7.1447    0.0000 HC        1 <0>         0.0000
     28 H3         10.9461    7.1447    0.0000 HC        1 <0>         0.0000
     29 H4         11.6605    7.5572    0.0000 HC        1 <0>         0.0000
     30 H5         11.6605    7.5572    0.0000 HC        1 <0>         0.0000
     31 H6         12.3750    7.1447    0.0000 HC        1 <0>         0.0000
     32 H7         12.3750    7.1447    0.0000 HC        1 <0>         0.0000
     33 H8         13.0895    7.5572    0.0000 HC        1 <0>         0.0000
     34 H9         13.0895    7.5572    0.0000 HC        1 <0>         0.0000
     35 H10        13.8039    7.1447    0.0000 HC        1 <0>         0.0000
     36 H11        13.8039    7.1447    0.0000 HC        1 <0>         0.0000
     37 H12        14.5184    7.5572    0.0000 HC        1 <0>         0.0000
     38 H13        14.5184    7.5572    0.0000 HC        1 <0>         0.0000
     39 H14        15.2329    7.1447    0.0000 HC        1 <0>         0.0000
     40 H15        15.2329    7.1447    0.0000 HC        1 <0>         0.0000
     41 H16        15.9474    7.5572    0.0000 HC        1 <0>         0.0000
     42 H17        15.9474    7.5572    0.0000 HC        1 <0>         0.0000
     43 H18        16.6618    7.1447    0.0000 HC        1 <0>         0.0000
     44 H19        16.6618    7.1447    0.0000 HC        1 <0>         0.0000
     45 H20        17.3763    7.5572    0.0000 HC        1 <0>         0.0000
     46 H21        17.3763    7.5572    0.0000 HC        1 <0>         0.0000
     47 H22        18.0908    7.1447    0.0000 HC        1 <0>         0.0000
     48 H23        18.0908    7.1447    0.0000 HC        1 <0>         0.0000
     49 H24        18.8052    7.5572    0.0000 HC        1 <0>         0.0000
     50 H25        18.8052    7.5572    0.0000 HC        1 <0>         0.0000
     51 H26        19.5197    7.1447    0.0000 HC        1 <0>         0.0000
     52 H27        19.5197    7.1447    0.0000 HC        1 <0>         0.0000
     53 H28        20.2342    7.5572    0.0000 HC        1 <0>         0.0000
     54 H29        20.2342    7.5572    0.0000 HC        1 <0>         0.0000
     55 H30        20.9487    7.1447    0.0000 HC        1 <0>         0.0000
     56 H31        20.9487    7.1447    0.0000 HC        1 <0>         0.0000
     57 H32        21.6631    7.5572    0.0000 HC        1 <0>         0.0000
     58 H33        21.6631    7.5572    0.0000 HC        1 <0>         0.0000
     59 H34        22.3776    7.1447    0.0000 HC        1 <0>         0.0000
     60 H35        22.3776    7.1447    0.0000 HC        1 <0>         0.0000
     61 H36        23.0921    7.5572    0.0000 HC        1 <0>         0.0000
     62 H37        23.0921    7.5572    0.0000 HC        1 <0>         0.0000
     63 H38        23.8065    7.1447    0.0000 HC        1 <0>         0.0000
     64 H39        23.8065    7.1447    0.0000 HC        1 <0>         0.0000
     65 H40        24.5210    7.5572    0.0000 HC        1 <0>         0.0000
     66 H41        24.5210    7.5572    0.0000 HC        1 <0>         0.0000
     67 H42        25.2355    7.1447    0.0000 HC        1 <0>         0.0000
     68 H43        25.2355    7.1447    0.0000 HC        1 <0>         0.0000
     69 H44        25.9499    7.5572    0.0000 HC        1 <0>         0.0000
     70 H45        25.9499    7.5572    0.0000 HC        1 <0>         0.0000
     71 H46        27.3789    7.5572    0.0000 HO        1 <0>         0.0000
@<TRIPOS>BOND
     1    1    2 1
     2    2    3 1
     3    3    4 1
     4    4    5 1
     5    5    6 1
     6    6    7 1
     7    7    8 1
     8    8    9 1
     9    9   10 1
    10   10   11 1
    11   11   12 1
    12   12   13 1
    13   13   14 1
    14   14   15 1
    15   15   16 1
    16   16   17 1
    17   17   18 1
    18   18   19 1
    19   19   20 1
    20   20   21 1
    21   21   22 1
    22   22   23 1
    23   23   24 1
    24   23   25 2
    25    1   26 1
    26    1   27 1
    27    1   28 1
    28    2   29 1
    29    2   30 1
    30    3   31 1
    31    3   32 1
    32    4   33 1
    33    4   34 1
    34    5   35 1
    35    5   36 1
    36    6   37 1
    37    6   38 1
    38    7   39 1
    39    7   40 1
    40    8   41 1
    41    8   42 1
    42    9   43 1
    43    9   44 1
    44   10   45 1
    45   10   46 1
    46   11   47 1
    47   11   48 1
    48   12   49 1
    49   12   50 1
    50   13   51 1
    51   13   52 1
    52   14   53 1
    53   14   54 1
    54   15   55 1
    55   15   56 1
    56   16   57 1
    57   16   58 1
    58   17   59 1
    59   17   60 1
    60   18   61 1
    61   18   62 1
    62   19   63 1
    63   19   64 1
    64   20   65 1
    65   20   66 1
    66   21   67 1
    67   21   68 1
    68   22   69 1
    69   22   70 1
    70   24   71 1
@<TRIPOS>MOLECULE
*****
   26    25     0     0     0
SMALL
NO_CHARGES

@<TRIPOS>ATOM
      1 C1          2.2836    2.1434    0.0000 CT        1 <0>         0.0000
      2 C2          2.9980    2.5559    0.0000 CT        1 <0>         0.0000
      3 O1          3.7125    2.1434    0.0000 OS        1 <0>         0.0000
      4 C3          4.4270    2.5559    0.0000 CT        1 <0>         0.0000
      5 C4          5.1414    2.1434    0.0000 CT        1 <0>         0.0000
      6 O2          5.8559    2.5559    0.0000 OS        1 <0>         0.0000
      7 C5          6.5704    2.1434    0.0000 CT        1 <0>         0.0000
      8 C6          7.2849    2.5559    0.0000 CT        1 <0>         0.0000
      9 O3          7.9993    2.1434    0.0000 OS        1 <0>         0.0000
     10 C7          8.7138    2.5559    0.0000 CT        1 <0>         0.0000
     11 H1          2.2836    2.1434    0.0000 HC        1 <0>         0.0000
     12 H2          2.2836    2.1434    0.0000 HC        1 <0>         0.0000
     13 H3          2.2836    2.1434    0.0000 HC        1 <0>         0.0000
     14 H4          2.9980    2.5559    0.0000 H1        1 <0>         0.0000
     15 H5          2.9980    2.5559    0.0000 H1        1 <0>         0.0000
     16 H6          4.4270    2.5559    0.0000 H1        1 <0>         0.0000
     17 H7          4.4270    2.5559    0.0000 H1        1 <0>         0.0000
     18 H8          5.1414    2.1434    0.0000 H1        1 <0>         0.0000
     19 H9          5.1414    2.1434    0.0000 H1        1 <0>         0.0000
     20 H10         6.5704    2.1434    0.0000 H1        1 <0>         0.0000
     21 H11         6.5704    2.1434    0.0000 H1        1 <0>         0.0000
     22 H12         7.2849    2.5559    0.0000 H1        1 <0>         0.0000
     23 H13         7.2849    2.5559    0.0000 H1        1 <0>         0.0000
     24 H14         8.7138    2.5559    0.0000 H1        1 <0>         0.0000
     25 H15         8.7138    2.5559    0.0000 H1        1 <0>         0.0000
     26 H16         8.7138    2.5559    0.0000 H1        1 <0>         0.0000
@<TRIPOS>BOND
     1    1    2 1
     2    2    3 1
     3    3    4 1
     4    4    5 1
     5    5    6 1
     6    6    7 1
     7    7    8 1
     8    8    9 1
     9    9   10 1
    10    1   11 1
    11    1   12 1
    12    1   13 1
    13    2   14 1
    14    2   15 1
    15    4   16 1
    16    4   17 1
    17    5   18 1
    18    5   19 1
    19    7   20 1
    20    7   21 1
    21    8   22 1
    22    8   23 1
    23   10   24 1
    24   10   25 1
    25   10   26 1
@<TRIPOS>MOLECULE
*****
   23    23     0     0     0
SMALL
NO_CHARGES

@<TRIPOS>ATOM
      1 C1         -0.4391    0.3808    0.0000 CT        1 <0>         0.0000
      2 C2         -0.4391   -0.4460    0.0000 CT        1 <0>         0.0000
      3 O1          0.2778    0.7926    0.0000 OS        1 <0>         0.0000
      4 C3         -1.1562    0.7959    0.0000 C         1 <0>         0.0000
      5 C4          0.2778   -0.8542    0.0000 CT        1 <0>         0.0000
      6 O2         -1.1493   -0.8577    0.0000 OH        1 <0>         0.0000
      7 C5          0.9880    0.3808    0.0000 CT        1 <0>         0.0000
      8 O3         -1.8664    0.3842    0.0000 OH        1 <0>         0.0000
      9 O4         -1.1527    1.6159    0.0000 O         1 <0>         0.0000
     10 C6          0.9880   -0.4460    0.0000 CT        1 <0>         0.0000
     11 O5          0.2778   -1.6776    0.0000 OH        1 <0>         0.0000
     12 O6          1.7016    0.7891    0.0000 OH        1 <0>         0.0000
     13 O7          1.6982   -0.8577    0.0000 OH        1 <0>         0.0000
     14 H1         -0.4391    0.3808    0.0000 H1        1 <0>         0.0000
     15 H2         -0.4391   -0.4460    0.0000 H1        1 <0>         0.0000
     16 H3          0.2778   -0.8542    0.0000 H1        1 <0>         0.0000
     17 H4         -1.1493   -0.8577    0.0000 HO        1 <0>         0.0000
     18 H5          0.9880    0.3808    0.0000 H2        1 <0>         0.0000
     19 H6         -1.8664    0.3842    0.0000 HO        1 <0>         0.0000
     20 H7          0.9880   -0.4460    0.0000 H1        1 <0>         0.0000
     21 H8          0.2778   -1.6776    0.0000 HO        1 <0>         0.0000
     22 H9          1.7016    0.7891    0.0000 HO        1 <0>         0.0000
     23 H10         1.6982   -0.8577    0.0000 HO        1 <0>         0.0000
@<TRIPOS>BOND
     1    1    2 1
     2    1    3 1
     3    1    4 1
     4    2    5 1
     5    2    6 1
     6    3    7 1
     7    4    8 1
     8    4    9 2
     9    5   10 1
    10    5   11 1
    11    7   12 1
    12   10   13 1
    13    7   10 1
    14    1   14 1
    15    2   15 1
    16    5   16 1
    17    6   17 1
    18    7   18 1
    19    8   19 1
    20   10   20 1
    21   11   21 1
    22   12   22 1
    23   13   23 1
@<TRIPOS>MOLECULE
*****
   21    21     0     0     0
SMALL
NO_CHARGES

@<TRIPOS>ATOM
      1 C1          2.1434    2.0625    0.0000 CT        1 <0>         0.0000
      2 O1          2.1434    1.2375    0.0000 OS        1 <0>         0.0000
      3 C2          1.4289    0.8250    0.0000 CA        1 <0>         0.0000
      4 C3          1.4289    0.0000    0.0000 CA        1 <0>         0.0000
      5 C4          0.7145   -0.4125    0.0000 CA        1 <0>         0.0000
      6 C5          0.7145   -1.2375    0.0000 CM        1 <0>         0.0000
      7 C6          1.4289   -1.6500    0.0000 CM        1 <0>         0.0000
      8 C7          0.0000    0.0000    0.0000 CA        1 <0>         0.0000
      9 C8          0.0000    0.8250    0.0000 CA        1 <0>         0.0000
     10 C9          0.7145    1.2375    0.0000 CA        1 <0>         0.0000
     11 O2          0.7145    2.0625    0.0000 OH        1 <0>         0.0000
     12 H1          2.1434    2.0625    0.0000 H1        1 <0>         0.0000
     13 H2          2.1434    2.0625    0.0000 H1        1 <0>         0.0000
     14 H3          2.1434    2.0625    0.0000 H1        1 <0>         0.0000
     15 H4          1.4289    0.0000    0.0000 HA        1 <0>         0.0000
     16 H5          0.7145   -1.2375    0.0000 HA        1 <0>         0.0000
     17 H6          1.4289   -1.6500    0.0000 HA        1 <0>         0.0000
     18 H7          1.4289   -1.6500    0.0000 HA        1 <0>         0.0000
     19 H8          0.0000    0.0000    0.0000 HA        1 <0>         0.0000
     20 H9          0.0000    0.8250    0.0000 HA        1 <0>         0.0000
     21 H10         0.7145    2.0625    0.0000 HO        1 <0>         0.0000
@<TRIPOS>BOND
     1    1    2 1
     2    2    3 1
     3    3    4 ar
     4    4    5 ar
     5    5    6 1
     6    6    7 2
     7    5    8 ar
     8    8    9 ar
     9    9   10 ar
    10    3   10 ar
    11   10   11 1
    12    1   12 1
    13    1   13 1
    14    1   14 1
    15    4   15 1
    16    6   16 1
    17    7   17 1
    18    7   18 1
    19    8   19 1
    20    9   20 1
    21   11   21 1
@<TRIPOS>MOLECULE
EQU
   38    41     0     0     0
SMALL
NO_CHARGES

@<TRIPOS>ATOM
      1 C1          2.7894    0.3610    0.0000 CA        1 <0>         0.0000
      2 C2          2.2576    0.9917    0.0000 CA        1 <0>         0.0000
      3 C3          1.4455    0.8465    0.0000 CB        1 <0>         0.0000
      4 C4          1.1652    0.0706    0.0000 CB        1 <0>         0.0000
      5 C5          1.6970   -0.5601    0.0000 CA        1 <0>         0.0000
      6 C6          2.5091   -0.4149    0.0000 CA        1 <0>         0.0000
      7 C7          0.9137    1.4772    0.0000 CA        1 <0>         0.0000
      8 C8          0.1015    1.3320    0.0000 CA        1 <0>         0.0000
      9 C9         -0.1788    0.5561    0.0000 CA        1 <0>         0.0000
     10 C10         0.3531   -0.0746    0.0000 CA        1 <0>         0.0000
     11 C11        -0.9909    0.4109    0.0000 CT        1 <0>         0.0000
     12 C12        -1.2712   -0.3650    0.0000 CT        1 <0>         0.0000
     13 C13        -0.7394   -0.9957    0.0000 CT        1 <0>         0.0000
     14 C14         0.0728   -0.8505    0.0000 CT        1 <0>         0.0000
     15 C15        -1.6422    0.9172    0.0000 CT        1 <0>         0.0000
     16 C16        -2.3251    0.4543    0.0000 CT        1 <0>         0.0000
     17 C17        -2.0957   -0.3382    0.0000 C         1 <0>         0.0000
     18 C18        -1.6311   -1.1074    0.0000 CT        1 <0>         0.0000
     19 O1          3.6015    0.5063    0.0000 OH        1 <0>         0.0000
     20 O2         -2.6021   -0.9896    0.0000 O         1 <0>         0.0000
     21 H1         -0.8510    0.9778    0.0000 HC        1 <0>         0.0000
     22 H2          2.2576    0.9917    0.0000 HA        1 <0>         0.0000
     23 H3          1.6970   -0.5601    0.0000 HA        1 <0>         0.0000
     24 H4          2.5091   -0.4149    0.0000 HA        1 <0>         0.0000
     25 H5          0.9137    1.4772    0.0000 HA        1 <0>         0.0000
     26 H6          0.1015    1.3320    0.0000 HA        1 <0>         0.0000
     27 H7         -0.7394   -0.9957    0.0000 HC        1 <0>         0.0000
     28 H8         -0.7394   -0.9957    0.0000 HC        1 <0>         0.0000
     29 H9          0.0728   -0.8505    0.0000 HC        1 <0>         0.0000
     30 H10         0.0728   -0.8505    0.0000 HC        1 <0>         0.0000
     31 H11        -1.6422    0.9172    0.0000 HC        1 <0>         0.0000
     32 H12        -1.6422    0.9172    0.0000 HC        1 <0>         0.0000
     33 H13        -2.3251    0.4543    0.0000 HC        1 <0>         0.0000
     34 H14        -2.3251    0.4543    0.0000 HC        1 <0>         0.0000
     35 H15        -1.6311   -1.1074    0.0000 HC        1 <0>         0.0000
     36 H16        -1.6311   -1.1074    0.0000 HC        1 <0>         0.0000
     37 H17        -1.6311   -1.1074    0.0000 HC        1 <0>         0.0000
     38 H18         3.6015    0.5063    0.0000 HO        1 <0>         0.0000
@<TRIPOS>BOND
     1    1    2 ar
     2    1    6 ar
     3    1   19 1
     4    2    3 ar
     5    3    4 ar
     6    3    7 ar
     7    4    5 ar
     8    4   10 ar
     9    5    6 ar
    10    7    8 ar
    11    8    9 ar
    12    9   10 ar
    13    9   11 1
    14   10   14 1
    15   11   12 1
    16   11   15 1
    17   11   21 1
    18   12   13 1
    19   12   17 1
    20   12   18 1
    21   13   14 1
    22   15   16 1
    23   16   17 1
    24   17   20 2
    25    2   22 1
    26    5   23 1
    27    6   24 1
    28    7   25 1
    29    8   26 1
    30   13   27 1
    31   13   28 1
    32   14   29 1
    33   14   30 1
    34   15   31 1
    35   15   32 1
    36   16   33 1
    37   16   34 1
    38   18   35 1
    39   18   36 1
    40   18   37 1
    41   19   38 1
@<TRIPOS>MOLECULE
*****
   21    20     0     0     0
SMALL
NO_CHARGES

@<TRIPOS>ATOM
      1 C1          4.3164    0.7145    0.0000 CT        1 <0>         0.0000
      2 C2          3.9039    1.4289    0.0000 CT        1 <0>         0.0000
      3 O1          3.4914    2.1434    0.0000 OH        1 <0>         0.0000
      4 C3          3.1895    1.0164    0.0000 CT        1 <0>         0.0000
      5 C4          2.4750    1.4289    0.0000 CT        1 <0>         0.0000
      6 O2          1.7605    1.0164    0.0000 OH        1 <0>         0.0000
      7 C5          4.6184    1.8414    0.0000 CT        1 <0>         0.0000
      8 C6          5.3329    1.4289    0.0000 C         1 <0>         0.0000
      9 O3          6.0474    1.8414    0.0000 O2        1 <0>         0.0000
     10 O4          5.3329    0.6039    0.0000 O2        1 <0>         0.0000
     11 H1          4.3164    0.7145    0.0000 HC        1 <0>         0.0000
     12 H2          4.3164    0.7145    0.0000 HC        1 <0>         0.0000
     13 H3          4.3164    0.7145    0.0000 HC        1 <0>         0.0000
     14 H4          3.4914    2.1434    0.0000 HO        1 <0>         0.0000
     15 H5          3.1895    1.0164    0.0000 HC        1 <0>         0.0000
     16 H6          3.1895    1.0164    0.0000 HC        1 <0>         0.0000
     17 H7          2.4750    1.4289    0.0000 H1        1 <0>         0.0000
     18 H8          2.4750    1.4289    0.0000 H1        1 <0>         0.0000
     19 H9          1.7605    1.0164    0.0000 HO        1 <0>         0.0000
     20 H10         4.6184    1.8414    0.0000 HC        1 <0>         0.0000
     21 H11         4.6184    1.8414    0.0000 HC        1 <0>         0.0000
@<TRIPOS>BOND
     1    1    2 1
     2    2    3 1
     3    2    4 1
     4    4    5 1
     5    5    6 1
     6    2    7 1
     7    7    8 1
     8    8    9 1
     9    8   10 2
    10    1   11 1
    11    1   12 1
    12    1   13 1
    13    3   14 1
    14    4   15 1
    15    4   16 1
    16    5   17 1
    17    5   18 1
    18    6   19 1
    19    7   20 1
    20    7   21 1
@<TRIPOS>MOLECULE
*****
   18    19     0     0     0
SMALL
NO_CHARGES

@<TRIPOS>ATOM
      1 O1         -0.4595   -2.6321    0.0000 O         1 <0>         0.0000
      2 C1          0.1351   -2.0602    0.0000 C         1 <0>         0.0000
      3 C2          0.5004   -1.3997    0.0000 CT        1 <0>         0.0000
      4 C3          1.1407   -0.9495    0.0000 CT        1 <0>         0.0000
      5 C4          1.9362   -1.4148    0.0000 CT        1 <0>         0.0000
      6 C5          1.6411   -2.0402    0.0000 CT        1 <0>         0.0000
      7 C6          0.9106   -1.6699    0.0000 CT        1 <0>         0.0000
      8 C7          0.9807   -0.1341    0.0000 CT        1 <0>         0.0000
      9 H1          0.5004   -1.3997    0.0000 HC        1 <0>         0.0000
     10 H2          0.5004   -1.3997    0.0000 HC        1 <0>         0.0000
     11 H3          1.1407   -0.9495    0.0000 HC        1 <0>         0.0000
     12 H4          1.9362   -1.4148    0.0000 HC        1 <0>         0.0000
     13 H5          1.9362   -1.4148    0.0000 HC        1 <0>         0.0000
     14 H6          1.6411   -2.0402    0.0000 HC        1 <0>         0.0000
     15 H7          1.6411   -2.0402    0.0000 HC        1 <0>         0.0000
     16 H8          0.9106   -1.6699    0.0000 HC        1 <0>         0.0000
     17 H9          0.9807   -0.1341    0.0000 HC        1 <0>         0.0000
     18 H10         0.9807   -0.1341    0.0000 HC        1 <0>         0.0000
@<TRIPOS>BOND
     1    1    2 2
     2    2    3 1
     3    3    4 1
     4    4    5 1
     5    5    6 1
     6    6    7 1
     7    2    7 1
     8    7    8 1
     9    4    8 1
    10    3    9 1
    11    3   10 1
    12    4   11 1
    13    5   12 1
    14    5   13 1
    15    6   14 1
    16    6   15 1
    17    7   16 1
    18    8   17 1
    19    8   18 1
@<TRIPOS>MOLECULE
*****
   30    30     0     0     0
SMALL
NO_CHARGES

@<TRIPOS>ATOM
      1 O1         -1.4289   -1.6500    0.0000 OH        1 <0>         0.0000
      2 C1         -0.7145   -1.2375    0.0000 CT        1 <0>         0.0000
      3 C2         -0.7145   -0.4125    0.0000 CT        1 <0>         0.0000
      4 O2         -1.4289    0.0000    0.0000 OH        1 <0>         0.0000
      5 C3          0.0000    0.0000    0.0000 CT        1 <0>         0.0000
      6 O3          0.0000    0.8250    0.0000 OS        1 <0>         0.0000
      7 C4          0.7145    1.2375    0.0000 CT        1 <0>         0.0000
      8 O4          0.1842    1.8695    0.0000 OH        1 <0>         0.0000
      9 C5          1.4289    0.8250    0.0000 CT        1 <0>         0.0000
     10 C6          1.4289    0.0000    0.0000 CT        1 <0>         0.0000
     11 O5          2.1434   -0.4125    0.0000 OH        1 <0>         0.0000
     12 C7          0.7145   -0.4125    0.0000 CT        1 <0>         0.0000
     13 O6          0.7145   -1.2375    0.0000 OH        1 <0>         0.0000
     14 C8          1.2448    1.8695    0.0000 C         1 <0>         0.0000
     15 O7          0.9626    2.6447    0.0000 OH        1 <0>         0.0000
     16 O8          2.0572    1.7262    0.0000 O         1 <0>         0.0000
     17 H1         -1.4289   -1.6500    0.0000 HO        1 <0>         0.0000
     18 H2         -0.7145   -1.2375    0.0000 H1        1 <0>         0.0000
     19 H3         -0.7145   -1.2375    0.0000 H1        1 <0>         0.0000
     20 H4         -0.7145   -0.4125    0.0000 H1        1 <0>         0.0000
     21 H5         -1.4289    0.0000    0.0000 HO        1 <0>         0.0000
     22 H6          0.0000    0.0000    0.0000 H1        1 <0>         0.0000
     23 H7          0.1842    1.8695    0.0000 HO        1 <0>         0.0000
     24 H8          1.4289    0.8250    0.0000 HC        1 <0>         0.0000
     25 H9          1.4289    0.8250    0.0000 HC        1 <0>         0.0000
     26 H10         1.4289    0.0000    0.0000 H1        1 <0>         0.0000
     27 H11         2.1434   -0.4125    0.0000 HO        1 <0>         0.0000
     28 H12         0.7145   -0.4125    0.0000 H1        1 <0>         0.0000
     29 H13         0.7145   -1.2375    0.0000 HO        1 <0>         0.0000
     30 H14         0.9626    2.6447    0.0000 HO        1 <0>         0.0000
@<TRIPOS>BOND
     1    1    2 1
     2    2    3 1
     3    3    4 1
     4    3    5 1
     5    5    6 1
     6    6    7 1
     7    7    8 1
     8    7    9 1
     9    9   10 1
    10   10   11 1
    11   10   12 1
    12    5   12 1
    13   12   13 1
    14    7   14 1
    15   14   15 1
    16   14   16 2
    17    1   17 1
    18    2   18 1
    19    2   19 1
    20    3   20 1
    21    4   21 1
    22    5   22 1
    23    8   23 1
    24    9   24 1
    25    9   25 1
    26   10   26 1
    27   11   27 1
    28   12   28 1
    29   13   29 1
    30   15   30 1
@<TRIPOS>MOLECULE
*****
   17    16     0     0     0
SMALL
NO_CHARGES

@<TRIPOS>ATOM
      1 O1          1.7605    1.8414    0.0000 OH        1 <0>         0.0000
      2 C1          2.4750    1.4289    0.0000 C         1 <0>         0.0000
      3 O2          2.4750    0.6039    0.0000 O         1 <0>         0.0000
      4 C2          3.1895    1.8414    0.0000 CT        1 <0>         0.0000
      5 C3          3.9039    1.4289    0.0000 CT        1 <0>         0.0000
      6 C4          4.6184    1.8414    0.0000 CT        1 <0>         0.0000
      7 C5          5.3329    1.4289    0.0000 C         1 <0>         0.0000
      8 O3          6.0474    1.8414    0.0000 OH        1 <0>         0.0000
      9 O4          5.3329    0.6039    0.0000 O         1 <0>         0.0000
     10 H1          1.7605    1.8414    0.0000 HO        1 <0>         0.0000
     11 H2          3.1895    1.8414    0.0000 HC        1 <0>         0.0000
     12 H3          3.1895    1.8414    0.0000 HC        1 <0>         0.0000
     13 H4          3.9039    1.4289    0.0000 HC        1 <0>         0.0000
     14 H5          3.9039    1.4289    0.0000 HC        1 <0>         0.0000
     15 H6          4.6184    1.8414    0.0000 HC        1 <0>         0.0000
     16 H7          4.6184    1.8414    0.0000 HC        1 <0>         0.0000
     17 H8          6.0474    1.8414    0.0000 HO        1 <0>         0.0000
@<TRIPOS>BOND
     1    1    2 1
     2    2    3 2
     3    2    4 1
     4    4    5 1
     5    5    6 1
     6    6    7 1
     7    7    8 1
     8    7    9 2
     9    1   10 1
    10    4   11 1
    11    4   12 1
    12    5   13 1
    13    5   14 1
    14    6   15 1
    15    6   16 1
    16    8   17 1
@<TRIPOS>MOLECULE
*****
   65    64     0     0     0
SMALL
NO_CHARGES

@<TRIPOS>ATOM
      1 C1         14.1355    8.9862    0.0000 CT        1 <0>         0.0000
      2 C2         14.8500    8.5737    0.0000 CT        1 <0>         0.0000
      3 O1         15.5645    8.9862    0.0000 OS        1 <0>         0.0000
      4 C3         16.2789    8.5737    0.0000 CT        1 <0>         0.0000
      5 C4         16.9934    8.9862    0.0000 CT        1 <0>         0.0000
      6 O2         17.7079    8.5737    0.0000 OS        1 <0>         0.0000
      7 C5         18.4224    8.9862    0.0000 CT        1 <0>         0.0000
      8 C6         19.1368    8.5737    0.0000 CT        1 <0>         0.0000
      9 O3         19.8513    8.9862    0.0000 OS        1 <0>         0.0000
     10 C7         20.5658    8.5737    0.0000 CT        1 <0>         0.0000
     11 C8         21.2802    8.9862    0.0000 CT        1 <0>         0.0000
     12 O4         21.9947    8.5737    0.0000 OS        1 <0>         0.0000
     13 C9         22.7092    8.9862    0.0000 CT        1 <0>         0.0000
     14 C10        23.4237    8.5737    0.0000 CT        1 <0>         0.0000
     15 O5         24.1381    8.9862    0.0000 OS        1 <0>         0.0000
     16 C11        24.8526    8.5737    0.0000 CT        1 <0>         0.0000
     17 C12        25.5671    8.9862    0.0000 CT        1 <0>         0.0000
     18 O6         26.2815    8.5737    0.0000 OS        1 <0>         0.0000
     19 C13        26.9960    8.9862    0.0000 CT        1 <0>         0.0000
     20 C14        27.7105    8.5737    0.0000 CT        1 <0>         0.0000
     21 O7         28.4249    8.9862    0.0000 OS        1 <0>         0.0000
     22 C15        29.1394    8.5737    0.0000 CT        1 <0>         0.0000
     23 C16        29.8539    8.9862    0.0000 CT        1 <0>         0.0000
     24 O8         30.5684    8.5737    0.0000 OS        1 <0>         0.0000
     25 C17        31.2828    8.9862    0.0000 CT        1 <0>         0.0000
     26 C18        31.9973    8.5737    0.0000 CT        1 <0>         0.0000
     27 O9         32.7118    8.9862    0.0000 OH        1 <0>         0.0000
     28 H1         14.1355    8.9862    0.0000 HC        1 <0>         0.0000
     29 H2         14.1355    8.9862    0.0000 HC        1 <0>         0.0000
     30 H3         14.1355    8.9862    0.0000 HC        1 <0>         0.0000
     31 H4         14.8500    8.5737    0.0000 H1        1 <0>         0.0000
     32 H5         14.8500    8.5737    0.0000 H1        1 <0>         0.0000
     33 H6         16.2789    8.5737    0.0000 H1        1 <0>         0.0000
     34 H7         16.2789    8.5737    0.0000 H1        1 <0>         0.0000
     35 H8         16.9934    8.9862    0.0000 H1        1 <0>         0.0000
     36 H9         16.9934    8.9862    0.0000 H1        1 <0>         0.0000
     37 H10        18.4224    8.9862    0.0000 H1        1 <0>         0.0000
     38 H11        18.4224    8.9862    0.0000 H1        1 <0>         0.0000
     39 H12        19.1368    8.5737    0.0000 H1        1 <0>         0.0000
     40 H13        19.1368    8.5737    0.0000 H1        1 <0>         0.0000
     41 H14        20.5658    8.5737    0.0000 H1        1 <0>         0.0000
     42 H15        20.5658    8.5737    0.0000 H1        1 <0>         0.0000
     43 H16        21.2802    8.9862    0.0000 H1        1 <0>         0.0000
     44 H17        21.2802    8.9862    0.0000 H1        1 <0>         0.0000
     45 H18        22.7092    8.9862    0.0000 H1        1 <0>         0.0000
     46 H19        22.7092    8.9862    0.0000 H1        1 <0>         0.0000
     47 H20        23.4237    8.5737    0.0000 H1        1 <0>         0.0000
     48 H21        23.4237    8.5737    0.0000 H1        1 <0>         0.0000
     49 H22        24.8526    8.5737    0.0000 H1        1 <0>         0.0000
     50 H23        24.8526    8.5737    0.0000 H1        1 <0>         0.0000
     51 H24        25.5671    8.9862    0.0000 H1        1 <0>         0.0000
     52 H25        25.5671    8.9862    0.0000 H1        1 <0>         0.0000
     53 H26        26.9960    8.9862    0.0000 H1        1 <0>         0.0000
     54 H27        26.9960    8.9862    0.0000 H1        1 <0>         0.0000
     55 H28        27.7105    8.5737    0.0000 H1        1 <0>         0.0000
     56 H29        27.7105    8.5737    0.0000 H1        1 <0>         0.0000
     57 H30        29.1394    8.5737    0.0000 H1        1 <0>         0.0000
     58 H31        29.1394    8.5737    0.0000 H1        1 <0>         0.0000
     59 H32        29.8539    8.9862    0.0000 H1        1 <0>         0.0000
     60 H33        29.8539    8.9862    0.0000 H1        1 <0>         0.0000
     61 H34        31.2828    8.9862    0.0000 H1        1 <0>         0.0000
     62 H35        31.2828    8.9862    0.0000 H1        1 <0>         0.0000
     63 H36        31.9973    8.5737    0.0000 H1        1 <0>         0.0000
     64 H37        31.9973    8.5737    0.0000 H1        1 <0>         0.0000
     65 H38        32.7118    8.9862    0.0000 HO        1 <0>         0.0000
@<TRIPOS>BOND
     1    1    2 1
     2    2    3 1
     3    3    4 1
     4    4    5 1
     5    5    6 1
     6    6    7 1
     7    7    8 1
     8    8    9 1
     9    9   10 1
    10   10   11 1
    11   11   12 1
    12   12   13 1
    13   13   14 1
    14   14   15 1
    15   15   16 1
    16   16   17 1
    17   17   18 1
    18   18   19 1
    19   19   20 1
    20   20   21 1
    21   21   22 1
    22   22   23 1
    23   23   24 1
    24   24   25 1
    25   25   26 1
    26   26   27 1
    27    1   28 1
    28    1   29 1
    29    1   30 1
    30    2   31 1
    31    2   32 1
    32    4   33 1
    33    4   34 1
    34    5   35 1
    35    5   36 1
    36    7   37 1
    37    7   38 1
    38    8   39 1
    39    8   40 1
    40   10   41 1
    41   10   42 1
    42   11   43 1
    43   11   44 1
    44   13   45 1
    45   13   46 1
    46   14   47 1
    47   14   48 1
    48   16   49 1
    49   16   50 1
    50   17   51 1
    51   17   52 1
    52   19   53 1
    53   19   54 1
    54   20   55 1
    55   20   56 1
    56   22   57 1
    57   22   58 1
    58   23   59 1
    59   23   60 1
    60   25   61 1
    61   25   62 1
    62   26   63 1
    63   26   64 1
    64   27   65 1
@<TRIPOS>MOLECULE
*****
   15    15     0     0     0
SMALL
NO_CHARGES

@<TRIPOS>ATOM
      1 O1          0.7145   -1.2375    0.0000 OH        1 <0>         0.0000
      2 C1          0.7145   -0.4125    0.0000 CA        1 <0>         0.0000
      3 C2          0.0000    0.0000    0.0000 CA        1 <0>         0.0000
      4 C3          0.0000    0.8250    0.0000 CA        1 <0>         0.0000
      5 C4          0.7145    1.2375    0.0000 CA        1 <0>         0.0000
      6 C5          0.7145    2.0625    0.0000 C         1 <0>         0.0000
      7 O2          0.0000    2.4750    0.0000 O         1 <0>         0.0000
      8 C6          1.4289    0.8250    0.0000 CA        1 <0>         0.0000
      9 C7          1.4289    0.0000    0.0000 CA        1 <0>         0.0000
     10 H1          0.7145   -1.2375    0.0000 HO        1 <0>         0.0000
     11 H2          0.0000    0.0000    0.0000 HA        1 <0>         0.0000
     12 H3          0.0000    0.8250    0.0000 HA        1 <0>         0.0000
     13 H4          0.7145    2.0625    0.0000 H4        1 <0>         0.0000
     14 H5          1.4289    0.8250    0.0000 HA        1 <0>         0.0000
     15 H6          1.4289    0.0000    0.0000 HA        1 <0>         0.0000
@<TRIPOS>BOND
     1    1    2 1
     2    2    3 ar
     3    3    4 ar
     4    4    5 ar
     5    5    6 1
     6    6    7 2
     7    5    8 ar
     8    8    9 ar
     9    2    9 ar
    10    1   10 1
    11    3   11 1
    12    4   12 1
    13    6   13 1
    14    8   14 1
    15    9   15 1
@<TRIPOS>MOLECULE
*****
   22    21     0     0     0
SMALL
NO_CHARGES

@<TRIPOS>ATOM
      1 C1          0.1105   -2.0625    0.0000 CT        1 <0>         0.0000
      2 C2          0.1105   -1.2375    0.0000 CT        1 <0>         0.0000
      3 O1         -0.6039   -0.8250    0.0000 OH        1 <0>         0.0000
      4 C3          0.8250   -0.8250    0.0000 CT        1 <0>         0.0000
      5 C4          0.8250    0.0000    0.0000 CT        1 <0>         0.0000
      6 C5          0.8250    0.8250    0.0000 CT        1 <0>         0.0000
      7 C6          1.6500    0.0000    0.0000 CT        1 <0>         0.0000
      8 O2          0.0000    0.0000    0.0000 OH        1 <0>         0.0000
      9 H1          0.1105   -2.0625    0.0000 HC        1 <0>         0.0000
     10 H2          0.1105   -2.0625    0.0000 HC        1 <0>         0.0000
     11 H3          0.1105   -2.0625    0.0000 HC        1 <0>         0.0000
     12 H4          0.1105   -1.2375    0.0000 H1        1 <0>         0.0000
     13 H5         -0.6039   -0.8250    0.0000 HO        1 <0>         0.0000
     14 H6          0.8250   -0.8250    0.0000 HC        1 <0>         0.0000
     15 H7          0.8250   -0.8250    0.0000 HC        1 <0>         0.0000
     16 H8          0.8250    0.8250    0.0000 HC        1 <0>         0.0000
     17 H9          0.8250    0.8250    0.0000 HC        1 <0>         0.0000
     18 H10         0.8250    0.8250    0.0000 HC        1 <0>         0.0000
     19 H11         1.6500    0.0000    0.0000 HC        1 <0>         0.0000
     20 H12         1.6500    0.0000    0.0000 HC        1 <0>         0.0000
     21 H13         1.6500    0.0000    0.0000 HC        1 <0>         0.0000
     22 H14         0.0000    0.0000    0.0000 HO        1 <0>         0.0000
@<TRIPOS>BOND
     1    1    2 1
     2    2    3 1
     3    2    4 1
     4    4    5 1
     5    5    6 1
     6    5    7 1
     7    5    8 1
     8    1    9 1
     9    1   10 1
    10    1   11 1
    11    2   12 1
    12    3   13 1
    13    4   14 1
    14    4   15 1
    15    6   16 1
    16    6   17 1
    17    6   18 1
    18    7   19 1
    19    7   20 1
    20    7   21 1
    21    8   22 1
@<TRIPOS>MOLECULE
*****
   14    13     0     0     0
SMALL
NO_CHARGES

@<TRIPOS>ATOM
      1 C1          1.2375    2.1434    0.0000 CT        1 <0>         0.0000
      2 C2          0.8250    1.4289    0.0000 CT        1 <0>         0.0000
      3 C3          1.2375    0.7145    0.0000 CT        1 <0>         0.0000
      4 C4          0.8250    0.0000    0.0000 C         1 <0>         0.0000
      5 O1          1.2375   -0.7145    0.0000 OH        1 <0>         0.0000
      6 O2          0.0000    0.0000    0.0000 O         1 <0>         0.0000
      7 H1          1.2375    2.1434    0.0000 HC        1 <0>         0.0000
      8 H2          1.2375    2.1434    0.0000 HC        1 <0>         0.0000
      9 H3          1.2375    2.1434    0.0000 HC        1 <0>         0.0000
     10 H4          0.8250    1.4289    0.0000 HC        1 <0>         0.0000
     11 H5          0.8250    1.4289    0.0000 HC        1 <0>         0.0000
     12 H6          1.2375    0.7145    0.0000 HC        1 <0>         0.0000
     13 H7          1.2375    0.7145    0.0000 HC        1 <0>         0.0000
     14 H8          1.2375   -0.7145    0.0000 HO        1 <0>         0.0000
@<TRIPOS>BOND
     1    1    2 1
     2    2    3 1
     3    3    4 1
     4    4    5 1
     5    4    6 2
     6    1    7 1
     7    1    8 1
     8    1    9 1
     9    2   10 1
    10    2   11 1
    11    3   12 1
    12    3   13 1
    13    5   14 1
@<TRIPOS>MOLECULE
*****
   20    20     0     0     0
SMALL
NO_CHARGES

@<TRIPOS>ATOM
      1 O1          2.1434    1.2375    0.0000 OH        1 <0>         0.0000
      2 C1          1.4289    0.8250    0.0000 CT        1 <0>         0.0000
      3 O2          1.4289    0.0000    0.0000 OS        1 <0>         0.0000
      4 C2          0.7145   -0.4125    0.0000 CM        1 <0>         0.0000
      5 C3          0.7145   -1.2375    0.0000 C         1 <0>         0.0000
      6 O3          0.0000   -1.6500    0.0000 OH        1 <0>         0.0000
      7 O4          1.4289   -1.6500    0.0000 O         1 <0>         0.0000
      8 C4          0.0000    0.0000    0.0000 CM        1 <0>         0.0000
      9 C5          0.0000    0.8250    0.0000 CT        1 <0>         0.0000
     10 O5         -0.7145    1.2375    0.0000 OH        1 <0>         0.0000
     11 C6          0.7145    1.2375    0.0000 CT        1 <0>         0.0000
     12 O6          0.7145    2.0625    0.0000 OH        1 <0>         0.0000
     13 H1          2.1434    1.2375    0.0000 HO        1 <0>         0.0000
     14 H2          1.4289    0.8250    0.0000 H2        1 <0>         0.0000
     15 H3          0.0000   -1.6500    0.0000 HO        1 <0>         0.0000
     16 H4          0.0000    0.0000    0.0000 HA        1 <0>         0.0000
     17 H5          0.0000    0.8250    0.0000 H1        1 <0>         0.0000
     18 H6         -0.7145    1.2375    0.0000 HO        1 <0>         0.0000
     19 H7          0.7145    1.2375    0.0000 H1        1 <0>         0.0000
     20 H8          0.7145    2.0625    0.0000 HO        1 <0>         0.0000
@<TRIPOS>BOND
     1    1    2 1
     2    2    3 1
     3    3    4 1
     4    4    5 1
     5    5    6 1
     6    5    7 2
     7    4    8 2
     8    8    9 1
     9    9   10 1
    10    9   11 1
    11    2   11 1
    12   11   12 1
    13    1   13 1
    14    2   14 1
    15    6   15 1
    16    8   16 1
    17    9   17 1
    18   10   18 1
    19   11   19 1
    20   12   20 1
@<TRIPOS>MOLECULE
*****
    9     8     0     0     0
SMALL
NO_CHARGES

@<TRIPOS>ATOM
      1 C1          2.0625   -0.7145    0.0000 CT        1 <0>         0.0000
      2 C2          1.2375   -0.7145    0.0000 C         1 <0>         0.0000
      3 O1          0.8250   -1.4289    0.0000 O         1 <0>         0.0000
      4 C3          0.8250    0.0000    0.0000 C         1 <0>         0.0000
      5 O2          0.0000    0.0000    0.0000 O         1 <0>         0.0000
      6 H1          2.0625   -0.7145    0.0000 HC        1 <0>         0.0000
      7 H2          2.0625   -0.7145    0.0000 HC        1 <0>         0.0000
      8 H3          2.0625   -0.7145    0.0000 HC        1 <0>         0.0000
      9 H4          0.8250    0.0000    0.0000 H4        1 <0>         0.0000
@<TRIPOS>BOND
     1    1    2 1
     2    2    3 2
     3    2    4 1
     4    4    5 2
     5    1    6 1
     6    1    7 1
     7    1    8 1
     8    4    9 1
@<TRIPOS>MOLECULE
DFA
   28    29     0     0     0
SMALL
NO_CHARGES

@<TRIPOS>ATOM
      1 C1          1.0339    0.7030    0.0000 C         1 <0>         0.0000
      2 O1          1.0339    1.5280    0.0000 O         1 <0>         0.0000
      3 C2         -1.1095    1.9405    0.0000 CA        1 <0>         0.0000
      4 C3         -0.3950    1.5280    0.0000 CA        1 <0>         0.0000
      5 C4         -0.3950    0.7030    0.0000 CA        1 <0>         0.0000
      6 C5         -1.1095    0.2905    0.0000 CA        1 <0>         0.0000
      7 C6         -1.8239    0.7030    0.0000 CA        1 <0>         0.0000
      8 C7         -1.8239    1.5280    0.0000 CA        1 <0>         0.0000
      9 C8          0.3195   -0.5345    0.0000 CA        1 <0>         0.0000
     10 C9          1.0339   -0.9470    0.0000 CA        1 <0>         0.0000
     11 C10         1.0339   -1.7720    0.0000 CA        1 <0>         0.0000
     12 C11         0.3195   -2.1845    0.0000 CA        1 <0>         0.0000
     13 C12        -0.3950   -1.7720    0.0000 CA        1 <0>         0.0000
     14 C13        -0.3950   -0.9470    0.0000 CA        1 <0>         0.0000
     15 C14         0.3195    0.2905    0.0000 CT        1 <0>         0.0000
     16 O2          1.7484    0.2905    0.0000 OH        1 <0>         0.0000
     17 H1         -1.1095    1.9405    0.0000 HA        1 <0>         0.0000
     18 H2         -0.3950    1.5280    0.0000 HA        1 <0>         0.0000
     19 H3         -1.1095    0.2905    0.0000 HA        1 <0>         0.0000
     20 H4         -1.8239    0.7030    0.0000 HA        1 <0>         0.0000
     21 H5         -1.8239    1.5280    0.0000 HA        1 <0>         0.0000
     22 H6          1.0339   -0.9470    0.0000 HA        1 <0>         0.0000
     23 H7          1.0339   -1.7720    0.0000 HA        1 <0>         0.0000
     24 H8          0.3195   -2.1845    0.0000 HA        1 <0>         0.0000
     25 H9         -0.3950   -1.7720    0.0000 HA        1 <0>         0.0000
     26 H10        -0.3950   -0.9470    0.0000 HA        1 <0>         0.0000
     27 H11         0.3195    0.2905    0.0000 HC        1 <0>         0.0000
     28 H12         1.7484    0.2905    0.0000 HO        1 <0>         0.0000
@<TRIPOS>BOND
     1    1    2 2
     2    1   15 1
     3    1   16 1
     4    3    4 ar
     5    3    8 ar
     6    4    5 ar
     7    5    6 ar
     8    5   15 1
     9    6    7 ar
    10    7    8 ar
    11    9   10 ar
    12    9   14 ar
    13    9   15 1
    14   10   11 ar
    15   11   12 ar
    16   12   13 ar
    17   13   14 ar
    18    3   17 1
    19    4   18 1
    20    6   19 1
    21    7   20 1
    22    8   21 1
    23   10   22 1
    24   11   23 1
    25   12   24 1
    26   13   25 1
    27   14   26 1
    28   15   27 1
    29   16   28 1
@<TRIPOS>MOLECULE
*****
   10     9     0     0     0
SMALL
NO_CHARGES

@<TRIPOS>ATOM
      1 O1          1.2375    2.1434    0.0000 OH        1 <0>         0.0000
      2 C1          0.8250    1.4289    0.0000 C         1 <0>         0.0000
      3 O2          0.0000    1.4289    0.0000 O         1 <0>         0.0000
      4 C2          1.2375    0.7145    0.0000 C         1 <0>         0.0000
      5 O3          2.0625    0.7145    0.0000 O         1 <0>         0.0000
      6 C3          0.8250    0.0000    0.0000 C         1 <0>         0.0000
      7 O4          1.2375   -0.7145    0.0000 OH        1 <0>         0.0000
      8 O5          0.0000    0.0000    0.0000 O         1 <0>         0.0000
      9 H1          1.2375    2.1434    0.0000 HO        1 <0>         0.0000
     10 H2          1.2375   -0.7145    0.0000 HO        1 <0>         0.0000
@<TRIPOS>BOND
     1    1    2 1
     2    2    3 2
     3    2    4 1
     4    4    5 2
     5    4    6 1
     6    6    7 1
     7    6    8 2
     8    1    9 1
     9    7   10 1
@<TRIPOS>MOLECULE
DKA
   32    31     0     0     0
SMALL
NO_CHARGES

@<TRIPOS>ATOM
      1 C1         -3.2374   -0.1687    0.0000 C         1 <0>         0.0000
      2 O1         -3.9520    0.2438    0.0000 O         1 <0>         0.0000
      3 C2         -2.5230    0.2438    0.0000 CT        1 <0>         0.0000
      4 C3         -1.8084   -0.1687    0.0000 CT        1 <0>         0.0000
      5 C4         -1.0939    0.2438    0.0000 CT        1 <0>         0.0000
      6 C5         -0.3794   -0.1687    0.0000 CT        1 <0>         0.0000
      7 C6          0.3351    0.2438    0.0000 CT        1 <0>         0.0000
      8 C7          1.0497   -0.1687    0.0000 CT        1 <0>         0.0000
      9 C8          1.7641    0.2438    0.0000 CT        1 <0>         0.0000
     10 C9          2.4787   -0.1687    0.0000 CT        1 <0>         0.0000
     11 C10         3.1932    0.2438    0.0000 CT        1 <0>         0.0000
     12 O2         -3.2374   -0.9938    0.0000 OH        1 <0>         0.0000
     13 H1         -2.5230    0.2438    0.0000 HC        1 <0>         0.0000
     14 H2         -2.5230    0.2438    0.0000 HC        1 <0>         0.0000
     15 H3         -1.8084   -0.1687    0.0000 HC        1 <0>         0.0000
     16 H4         -1.8084   -0.1687    0.0000 HC        1 <0>         0.0000
     17 H5         -1.0939    0.2438    0.0000 HC        1 <0>         0.0000
     18 H6         -1.0939    0.2438    0.0000 HC        1 <0>         0.0000
     19 H7         -0.3794   -0.1687    0.0000 HC        1 <0>         0.0000
     20 H8         -0.3794   -0.1687    0.0000 HC        1 <0>         0.0000
     21 H9          0.3351    0.2438    0.0000 HC        1 <0>         0.0000
     22 H10         0.3351    0.2438    0.0000 HC        1 <0>         0.0000
     23 H11         1.0497   -0.1687    0.0000 HC        1 <0>         0.0000
     24 H12         1.0497   -0.1687    0.0000 HC        1 <0>         0.0000
     25 H13         1.7641    0.2438    0.0000 HC        1 <0>         0.0000
     26 H14         1.7641    0.2438    0.0000 HC        1 <0>         0.0000
     27 H15         2.4787   -0.1687    0.0000 HC        1 <0>         0.0000
     28 H16         2.4787   -0.1687    0.0000 HC        1 <0>         0.0000
     29 H17         3.1932    0.2438    0.0000 HC        1 <0>         0.0000
     30 H18         3.1932    0.2438    0.0000 HC        1 <0>         0.0000
     31 H19         3.1932    0.2438    0.0000 HC        1 <0>         0.0000
     32 H20        -3.2374   -0.9938    0.0000 HO        1 <0>         0.0000
@<TRIPOS>BOND
     1    1    2 2
     2    1    3 1
     3    1   12 1
     4    3    4 1
     5    4    5 1
     6    5    6 1
     7    6    7 1
     8    7    8 1
     9    8    9 1
    10    9   10 1
    11   10   11 1
    12    3   13 1
    13    3   14 1
    14    4   15 1
    15    4   16 1
    16    5   17 1
    17    5   18 1
    18    6   19 1
    19    6   20 1
    20    7   21 1
    21    7   22 1
    22    8   23 1
    23    8   24 1
    24    9   25 1
    25    9   26 1
    26   10   27 1
    27   10   28 1
    28   11   29 1
    29   11   30 1
    30   11   31 1
    31   12   32 1
@<TRIPOS>MOLECULE
*****
   31    33     0     0     0
SMALL
NO_CHARGES

@<TRIPOS>ATOM
      1 O1         -2.1434   -2.8875    0.0000 OH        1 <0>         0.0000
      2 C1         -1.4289   -2.4750    0.0000 CA        1 <0>         0.0000
      3 C2         -1.4289   -1.6500    0.0000 CA        1 <0>         0.0000
      4 C3         -0.7145   -1.2375    0.0000 CA        1 <0>         0.0000
      5 C4          0.0000   -1.6500    0.0000 CA        1 <0>         0.0000
      6 C5          0.0000   -2.4750    0.0000 CA        1 <0>         0.0000
      7 C6         -0.7145   -2.8875    0.0000 CA        1 <0>         0.0000
      8 C7          0.7145   -1.2375    0.0000 CT        1 <0>         0.0000
      9 C8          0.7145   -0.4125    0.0000 CT        1 <0>         0.0000
     10 C9          1.4289    0.0000    0.0000 C         1 <0>         0.0000
     11 O2          1.4289    0.8250    0.0000 O         1 <0>         0.0000
     12 C10         2.1434   -0.4125    0.0000 CA        1 <0>         0.0000
     13 C11         2.8579    0.0000    0.0000 CA        1 <0>         0.0000
     14 C12         3.5724   -0.4125    0.0000 CA        1 <0>         0.0000
     15 C13         3.5724   -1.2375    0.0000 CA        1 <0>         0.0000
     16 O3          4.2868   -1.6500    0.0000 OH        1 <0>         0.0000
     17 C14         2.8579   -1.6500    0.0000 CA        1 <0>         0.0000
     18 C15         2.1434   -1.2375    0.0000 CA        1 <0>         0.0000
     19 O4          1.4289   -1.6500    0.0000 OS        1 <0>         0.0000
     20 H1         -2.1434   -2.8875    0.0000 HO        1 <0>         0.0000
     21 H2         -1.4289   -1.6500    0.0000 HA        1 <0>         0.0000
     22 H3         -0.7145   -1.2375    0.0000 HA        1 <0>         0.0000
     23 H4          0.0000   -2.4750    0.0000 HA        1 <0>         0.0000
     24 H5         -0.7145   -2.8875    0.0000 HA        1 <0>         0.0000
     25 H6          0.7145   -1.2375    0.0000 H1        1 <0>         0.0000
     26 H7          0.7145   -0.4125    0.0000 HC        1 <0>         0.0000
     27 H8          0.7145   -0.4125    0.0000 HC        1 <0>         0.0000
     28 H9          2.8579    0.0000    0.0000 HA        1 <0>         0.0000
     29 H10         3.5724   -0.4125    0.0000 HA        1 <0>         0.0000
     30 H11         4.2868   -1.6500    0.0000 HO        1 <0>         0.0000
     31 H12         2.8579   -1.6500    0.0000 HA        1 <0>         0.0000
@<TRIPOS>BOND
     1    1    2 1
     2    2    3 ar
     3    3    4 ar
     4    4    5 ar
     5    5    6 ar
     6    6    7 ar
     7    2    7 ar
     8    5    8 1
     9    8    9 1
    10    9   10 1
    11   10   11 2
    12   10   12 1
    13   12   13 ar
    14   13   14 ar
    15   14   15 ar
    16   15   16 1
    17   15   17 ar
    18   17   18 ar
    19   12   18 ar
    20   18   19 1
    21    8   19 1
    22    1   20 1
    23    3   21 1
    24    4   22 1
    25    6   23 1
    26    7   24 1
    27    8   25 1
    28    9   26 1
    29    9   27 1
    30   13   28 1
    31   14   29 1
    32   16   30 1
    33   17   31 1
@<TRIPOS>MOLECULE
*****
   22    21     0     0     0
SMALL
NO_CHARGES

@<TRIPOS>ATOM
      1 O1          3.9039    0.6039    0.0000 OH        1 <0>         0.0000
      2 C1          3.9039    1.4289    0.0000 CT        1 <0>         0.0000
      3 C2          3.1895    1.8414    0.0000 CT        1 <0>         0.0000
      4 O2          3.1895    2.6664    0.0000 OH        1 <0>         0.0000
      5 C3          2.4750    1.4289    0.0000 CT        1 <0>         0.0000
      6 O3          2.4750    0.6039    0.0000 OH        1 <0>         0.0000
      7 C4          1.7605    1.8414    0.0000 C         1 <0>         0.0000
      8 O4          1.0461    1.4289    0.0000 O2        1 <0>         0.0000
      9 O5          1.7605    2.6664    0.0000 O2        1 <0>         0.0000
     10 C5          4.6184    1.8414    0.0000 CT        1 <0>         0.0000
     11 O6          4.6184    2.6664    0.0000 OH        1 <0>         0.0000
     12 C6          5.3329    1.4289    0.0000 C         1 <0>         0.0000
     13 O7          6.0474    1.8414    0.0000 O2        1 <0>         0.0000
     14 O8          5.3329    0.6039    0.0000 O2        1 <0>         0.0000
     15 H1          3.9039    0.6039    0.0000 HO        1 <0>         0.0000
     16 H2          3.9039    1.4289    0.0000 H1        1 <0>         0.0000
     17 H3          3.1895    1.8414    0.0000 H1        1 <0>         0.0000
     18 H4          3.1895    2.6664    0.0000 HO        1 <0>         0.0000
     19 H5          2.4750    1.4289    0.0000 H1        1 <0>         0.0000
     20 H6          2.4750    0.6039    0.0000 HO        1 <0>         0.0000
     21 H7          4.6184    1.8414    0.0000 H1        1 <0>         0.0000
     22 H8          4.6184    2.6664    0.0000 HO        1 <0>         0.0000
@<TRIPOS>BOND
     1    1    2 1
     2    2    3 1
     3    3    4 1
     4    3    5 1
     5    5    6 1
     6    5    7 1
     7    7    8 1
     8    7    9 2
     9    2   10 1
    10   10   11 1
    11   10   12 1
    12   12   13 1
    13   12   14 2
    14    1   15 1
    15    2   16 1
    16    3   17 1
    17    4   18 1
    18    5   19 1
    19    6   20 1
    20   10   21 1
    21   11   22 1
@<TRIPOS>MOLECULE
(3a,5b,12a)-3,12-dihydroxy-Cholan-24-oic acid.mol
   68    71     0     0     0
SMALL
NO_CHARGES

@<TRIPOS>ATOM
      1 C1         -2.4539   -2.3339    0.0000 CT        1 <0>         0.0000
      2 C2         -2.4539   -1.5089    0.0000 CT        1 <0>         0.0000
      3 C3         -1.7395   -1.0964    0.0000 CT        1 <0>         0.0000
      4 C4         -1.7395   -2.7464    0.0000 CT        1 <0>         0.0000
      5 C5         -1.0250   -2.3339    0.0000 CT        1 <0>         0.0000
      6 C6         -0.3105   -2.7464    0.0000 CT        1 <0>         0.0000
      7 C7          0.4040   -2.3339    0.0000 CT        1 <0>         0.0000
      8 C8          0.4040   -1.5089    0.0000 CT        1 <0>         0.0000
      9 C9          1.1184   -1.0964    0.0000 CT        1 <0>         0.0000
     10 C10         1.9030   -1.3513    0.0000 CT        1 <0>         0.0000
     11 C11         2.3880   -0.6839    0.0000 CT        1 <0>         0.0000
     12 C12         1.9030   -0.0164    0.0000 CT        1 <0>         0.0000
     13 C13         2.1580    0.7682    0.0000 CT        1 <0>         0.0000
     14 C14         1.5746    1.3516    0.0000 CT        1 <0>         0.0000
     15 C15         1.7881    2.1484    0.0000 CT        1 <0>         0.0000
     16 C16         2.5850    2.3620    0.0000 C         1 <0>         0.0000
     17 C17         2.9650    0.9397    0.0000 CT        1 <0>         0.0000
     18 C18         1.1184   -0.2714    0.0000 CT        1 <0>         0.0000
     19 C19         1.1184    0.5536    0.0000 CT        1 <0>         0.0000
     20 C20         0.4040    0.1411    0.0000 CT        1 <0>         0.0000
     21 C21        -0.3105   -0.2714    0.0000 CT        1 <0>         0.0000
     22 C22        -0.3105   -1.0964    0.0000 CT        1 <0>         0.0000
     23 C23        -1.0250   -1.5089    0.0000 CT        1 <0>         0.0000
     24 C24        -1.0250   -0.6839    0.0000 CT        1 <0>         0.0000
     25 O1          2.7986    3.1589    0.0000 O         1 <0>         0.0000
     26 O2          3.1684    1.7786    0.0000 OH        1 <0>         0.0000
     27 O3          0.4040    0.9661    0.0000 OH        1 <0>         0.0000
     28 O4         -3.1684   -2.7464    0.0000 OH        1 <0>         0.0000
     29 H1         -1.0250   -3.1589    0.0000 HC        1 <0>         0.0000
     30 H2         -0.3105   -1.9214    0.0000 HC        1 <0>         0.0000
     31 H3          0.4040   -0.6839    0.0000 HC        1 <0>         0.0000
     32 H4          1.1184   -1.9214    0.0000 HC        1 <0>         0.0000
     33 H5         -2.4539   -2.3339    0.0000 H1        1 <0>         0.0000
     34 H6         -2.4539   -1.5089    0.0000 HC        1 <0>         0.0000
     35 H7         -2.4539   -1.5089    0.0000 HC        1 <0>         0.0000
     36 H8         -1.7395   -1.0964    0.0000 HC        1 <0>         0.0000
     37 H9         -1.7395   -1.0964    0.0000 HC        1 <0>         0.0000
     38 H10        -1.7395   -2.7464    0.0000 HC        1 <0>         0.0000
     39 H11        -1.7395   -2.7464    0.0000 HC        1 <0>         0.0000
     40 H12        -0.3105   -2.7464    0.0000 HC        1 <0>         0.0000
     41 H13        -0.3105   -2.7464    0.0000 HC        1 <0>         0.0000
     42 H14         0.4040   -2.3339    0.0000 HC        1 <0>         0.0000
     43 H15         0.4040   -2.3339    0.0000 HC        1 <0>         0.0000
     44 H16         1.9030   -1.3513    0.0000 HC        1 <0>         0.0000
     45 H17         1.9030   -1.3513    0.0000 HC        1 <0>         0.0000
     46 H18         2.3880   -0.6839    0.0000 HC        1 <0>         0.0000
     47 H19         2.3880   -0.6839    0.0000 HC        1 <0>         0.0000
     48 H20         1.9030   -0.0164    0.0000 HC        1 <0>         0.0000
     49 H21         2.1580    0.7682    0.0000 HC        1 <0>         0.0000
     50 H22         1.5746    1.3516    0.0000 HC        1 <0>         0.0000
     51 H23         1.5746    1.3516    0.0000 HC        1 <0>         0.0000
     52 H24         1.7881    2.1484    0.0000 HC        1 <0>         0.0000
     53 H25         1.7881    2.1484    0.0000 HC        1 <0>         0.0000
     54 H26         2.9650    0.9397    0.0000 HC        1 <0>         0.0000
     55 H27         2.9650    0.9397    0.0000 HC        1 <0>         0.0000
     56 H28         2.9650    0.9397    0.0000 HC        1 <0>         0.0000
     57 H29         1.1184    0.5536    0.0000 HC        1 <0>         0.0000
     58 H30         1.1184    0.5536    0.0000 HC        1 <0>         0.0000
     59 H31         1.1184    0.5536    0.0000 HC        1 <0>         0.0000
     60 H32         0.4040    0.1411    0.0000 H1        1 <0>         0.0000
     61 H33        -0.3105   -0.2714    0.0000 HC        1 <0>         0.0000
     62 H34        -0.3105   -0.2714    0.0000 HC        1 <0>         0.0000
     63 H35        -1.0250   -0.6839    0.0000 HC        1 <0>         0.0000
     64 H36        -1.0250   -0.6839    0.0000 HC        1 <0>         0.0000
     65 H37        -1.0250   -0.6839    0.0000 HC        1 <0>         0.0000
     66 H38         3.1684    1.7786    0.0000 HO        1 <0>         0.0000
     67 H39         0.4040    0.9661    0.0000 HO        1 <0>         0.0000
     68 H40        -3.1684   -2.7464    0.0000 HO        1 <0>         0.0000
@<TRIPOS>BOND
     1    1    2 1
     2    2    3 1
     3    1    4 1
     4    4    5 1
     5    5    6 1
     6    6    7 1
     7    7    8 1
     8    8    9 1
     9    9   10 1
    10   10   11 1
    11   11   12 1
    12   12   13 1
    13   13   14 1
    14   14   15 1
    15   15   16 1
    16   13   17 1
    17   12   18 1
    18    9   18 1
    19   18   19 1
    20   18   20 1
    21   20   21 1
    22   21   22 1
    23    8   22 1
    24   22   23 1
    25    3   23 1
    26    5   23 1
    27   23   24 1
    28   16   25 2
    29   16   26 1
    30   20   27 1
    31    1   28 1
    32    5   29 1
    33   22   30 1
    34    8   31 1
    35    9   32 1
    36    1   33 1
    37    2   34 1
    38    2   35 1
    39    3   36 1
    40    3   37 1
    41    4   38 1
    42    4   39 1
    43    6   40 1
    44    6   41 1
    45    7   42 1
    46    7   43 1
    47   10   44 1
    48   10   45 1
    49   11   46 1
    50   11   47 1
    51   12   48 1
    52   13   49 1
    53   14   50 1
    54   14   51 1
    55   15   52 1
    56   15   53 1
    57   17   54 1
    58   17   55 1
    59   17   56 1
    60   19   57 1
    61   19   58 1
    62   19   59 1
    63   20   60 1
    64   21   61 1
    65   21   62 1
    66   24   63 1
    67   24   64 1
    68   24   65 1
    69   26   66 1
    70   27   67 1
    71   28   68 1
@<TRIPOS>MOLECULE
*****
   26    28     0     0     0
SMALL
NO_CHARGES

@<TRIPOS>ATOM
      1 C1          0.1163   -2.0322    0.0000 CT        1 <0>         0.0000
      2 C2          0.8517   -1.6585    0.0000 CT        1 <0>         0.0000
      3 C3          0.8517   -0.9111    0.0000 CT        1 <0>         0.0000
      4 C4          1.3012   -0.1208    0.0000 CT        1 <0>         0.0000
      5 C5          0.5657   -0.4945    0.0000 CT        1 <0>         0.0000
      6 C6          0.5657   -1.2419    0.0000 CT        1 <0>         0.0000
      7 C7          1.3012   -1.6156    0.0000 CT        1 <0>         0.0000
      8 C8          2.0368   -1.2419    0.0000 CT        1 <0>         0.0000
      9 C9          1.5873   -2.0322    0.0000 CT        1 <0>         0.0000
     10 C10         2.0368   -0.4945    0.0000 CT        1 <0>         0.0000
     11 H1          0.1163   -2.0322    0.0000 HC        1 <0>         0.0000
     12 H2          0.1163   -2.0322    0.0000 HC        1 <0>         0.0000
     13 H3          0.8517   -1.6585    0.0000 HC        1 <0>         0.0000
     14 H4          0.8517   -0.9111    0.0000 HC        1 <0>         0.0000
     15 H5          0.8517   -0.9111    0.0000 HC        1 <0>         0.0000
     16 H6          1.3012   -0.1208    0.0000 HC        1 <0>         0.0000
     17 H7          0.5657   -0.4945    0.0000 HC        1 <0>         0.0000
     18 H8          0.5657   -0.4945    0.0000 HC        1 <0>         0.0000
     19 H9          0.5657   -1.2419    0.0000 HC        1 <0>         0.0000
     20 H10         1.3012   -1.6156    0.0000 HC        1 <0>         0.0000
     21 H11         1.3012   -1.6156    0.0000 HC        1 <0>         0.0000
     22 H12         2.0368   -1.2419    0.0000 HC        1 <0>         0.0000
     23 H13         1.5873   -2.0322    0.0000 HC        1 <0>         0.0000
     24 H14         1.5873   -2.0322    0.0000 HC        1 <0>         0.0000
     25 H15         2.0368   -0.4945    0.0000 HC        1 <0>         0.0000
     26 H16         2.0368   -0.4945    0.0000 HC        1 <0>         0.0000
@<TRIPOS>BOND
     1    1    2 1
     2    4   10 1
     3    3    4 1
     4    4    5 1
     5    2    9 1
     6    1    6 1
     7    6    7 1
     8    7    8 1
     9    8    9 1
    10    5    6 1
    11    8   10 1
    12    2    3 1
    13    1   11 1
    14    1   12 1
    15    2   13 1
    16    3   14 1
    17    3   15 1
    18    4   16 1
    19    5   17 1
    20    5   18 1
    21    6   19 1
    22    7   20 1
    23    7   21 1
    24    8   22 1
    25    9   23 1
    26    9   24 1
    27   10   25 1
    28   10   26 1
@<TRIPOS>MOLECULE
*****
  134   133     0     0     0
SMALL
NO_CHARGES

@<TRIPOS>ATOM
      1 C1         18.3711   11.4315    0.0000 CT        1 <0>         0.0000
      2 C2         19.0855   11.8440    0.0000 CT        1 <0>         0.0000
      3 C3         19.0855   12.6690    0.0000 CT        1 <0>         0.0000
      4 C4         19.8000   11.4315    0.0000 CT        1 <0>         0.0000
      5 C5         20.5145   11.8440    0.0000 CT        1 <0>         0.0000
      6 C6         21.2289   11.4315    0.0000 CT        1 <0>         0.0000
      7 C7         21.9434   11.8440    0.0000 CT        1 <0>         0.0000
      8 C8         21.9434   12.6690    0.0000 CT        1 <0>         0.0000
      9 C9         22.6579   11.4315    0.0000 CT        1 <0>         0.0000
     10 C10        23.3724   11.8440    0.0000 CT        1 <0>         0.0000
     11 C11        24.0868   11.4315    0.0000 CT        1 <0>         0.0000
     12 C12        24.8013   11.8440    0.0000 CT        1 <0>         0.0000
     13 C13        24.8013   12.6690    0.0000 CT        1 <0>         0.0000
     14 C14        25.5158   11.4315    0.0000 CT        1 <0>         0.0000
     15 C15        26.2302   11.8440    0.0000 CT        1 <0>         0.0000
     16 C16        26.9447   11.4315    0.0000 CT        1 <0>         0.0000
     17 C17        27.6592   11.8440    0.0000 CT        1 <0>         0.0000
     18 C18        27.6592   12.6690    0.0000 CT        1 <0>         0.0000
     19 C19        28.3737   11.4315    0.0000 CT        1 <0>         0.0000
     20 C20        29.0881   11.8440    0.0000 CT        1 <0>         0.0000
     21 O1         29.8026   11.4315    0.0000 OS        1 <0>         0.0000
     22 C21        30.5171   11.8440    0.0000 CT        1 <0>         0.0000
     23 C22        31.2315   11.4315    0.0000 CT        1 <0>         0.0000
     24 C23        31.2315   10.6065    0.0000 CT        1 <0>         0.0000
     25 O2         31.9460   10.1940    0.0000 OH        1 <0>         0.0000
     26 O3         31.9460   11.8440    0.0000 OS        1 <0>         0.0000
     27 C24        32.6605   11.4315    0.0000 CT        1 <0>         0.0000
     28 C25        33.3749   11.8440    0.0000 CT        1 <0>         0.0000
     29 C26        34.0894   11.4315    0.0000 CT        1 <0>         0.0000
     30 C27        34.0894   10.6065    0.0000 CT        1 <0>         0.0000
     31 C28        34.8039   11.8440    0.0000 CT        1 <0>         0.0000
     32 C29        35.5184   11.4315    0.0000 CT        1 <0>         0.0000
     33 C30        36.2328   11.8440    0.0000 CT        1 <0>         0.0000
     34 C31        36.9473   11.4315    0.0000 CT        1 <0>         0.0000
     35 C32        36.9473   10.6065    0.0000 CT        1 <0>         0.0000
     36 C33        37.6618   11.8440    0.0000 CT        1 <0>         0.0000
     37 C34        38.3762   11.4315    0.0000 CT        1 <0>         0.0000
     38 C35        39.0907   11.8440    0.0000 CT        1 <0>         0.0000
     39 C36        39.8052   11.4315    0.0000 CT        1 <0>         0.0000
     40 C37        39.8052   10.6065    0.0000 CT        1 <0>         0.0000
     41 C38        40.5197   11.8440    0.0000 CT        1 <0>         0.0000
     42 C39        41.2341   11.4315    0.0000 CT        1 <0>         0.0000
     43 C40        41.9486   11.8440    0.0000 CT        1 <0>         0.0000
     44 C41        42.6631   11.4315    0.0000 CT        1 <0>         0.0000
     45 C42        43.3775   11.8440    0.0000 CT        1 <0>         0.0000
     46 C43        42.6631   10.6065    0.0000 CT        1 <0>         0.0000
     47 H1         18.3711   11.4315    0.0000 HC        1 <0>         0.0000
     48 H2         18.3711   11.4315    0.0000 HC        1 <0>         0.0000
     49 H3         18.3711   11.4315    0.0000 HC        1 <0>         0.0000
     50 H4         19.0855   11.8440    0.0000 HC        1 <0>         0.0000
     51 H5         19.0855   12.6690    0.0000 HC        1 <0>         0.0000
     52 H6         19.0855   12.6690    0.0000 HC        1 <0>         0.0000
     53 H7         19.0855   12.6690    0.0000 HC        1 <0>         0.0000
     54 H8         19.8000   11.4315    0.0000 HC        1 <0>         0.0000
     55 H9         19.8000   11.4315    0.0000 HC        1 <0>         0.0000
     56 H10        20.5145   11.8440    0.0000 HC        1 <0>         0.0000
     57 H11        20.5145   11.8440    0.0000 HC        1 <0>         0.0000
     58 H12        21.2289   11.4315    0.0000 HC        1 <0>         0.0000
     59 H13        21.2289   11.4315    0.0000 HC        1 <0>         0.0000
     60 H14        21.9434   11.8440    0.0000 HC        1 <0>         0.0000
     61 H15        21.9434   12.6690    0.0000 HC        1 <0>         0.0000
     62 H16        21.9434   12.6690    0.0000 HC        1 <0>         0.0000
     63 H17        21.9434   12.6690    0.0000 HC        1 <0>         0.0000
     64 H18        22.6579   11.4315    0.0000 HC        1 <0>         0.0000
     65 H19        22.6579   11.4315    0.0000 HC        1 <0>         0.0000
     66 H20        23.3724   11.8440    0.0000 HC        1 <0>         0.0000
     67 H21        23.3724   11.8440    0.0000 HC        1 <0>         0.0000
     68 H22        24.0868   11.4315    0.0000 HC        1 <0>         0.0000
     69 H23        24.0868   11.4315    0.0000 HC        1 <0>         0.0000
     70 H24        24.8013   11.8440    0.0000 HC        1 <0>         0.0000
     71 H25        24.8013   12.6690    0.0000 HC        1 <0>         0.0000
     72 H26        24.8013   12.6690    0.0000 HC        1 <0>         0.0000
     73 H27        24.8013   12.6690    0.0000 HC        1 <0>         0.0000
     74 H28        25.5158   11.4315    0.0000 HC        1 <0>         0.0000
     75 H29        25.5158   11.4315    0.0000 HC        1 <0>         0.0000
     76 H30        26.2302   11.8440    0.0000 HC        1 <0>         0.0000
     77 H31        26.2302   11.8440    0.0000 HC        1 <0>         0.0000
     78 H32        26.9447   11.4315    0.0000 HC        1 <0>         0.0000
     79 H33        26.9447   11.4315    0.0000 HC        1 <0>         0.0000
     80 H34        27.6592   11.8440    0.0000 HC        1 <0>         0.0000
     81 H35        27.6592   12.6690    0.0000 HC        1 <0>         0.0000
     82 H36        27.6592   12.6690    0.0000 HC        1 <0>         0.0000
     83 H37        27.6592   12.6690    0.0000 HC        1 <0>         0.0000
     84 H38        28.3737   11.4315    0.0000 HC        1 <0>         0.0000
     85 H39        28.3737   11.4315    0.0000 HC        1 <0>         0.0000
     86 H40        29.0881   11.8440    0.0000 H1        1 <0>         0.0000
     87 H41        29.0881   11.8440    0.0000 H1        1 <0>         0.0000
     88 H42        30.5171   11.8440    0.0000 H1        1 <0>         0.0000
     89 H43        30.5171   11.8440    0.0000 H1        1 <0>         0.0000
     90 H44        31.2315   11.4315    0.0000 H1        1 <0>         0.0000
     91 H45        31.2315   10.6065    0.0000 H1        1 <0>         0.0000
     92 H46        31.2315   10.6065    0.0000 H1        1 <0>         0.0000
     93 H47        31.9460   10.1940    0.0000 HO        1 <0>         0.0000
     94 H48        32.6605   11.4315    0.0000 H1        1 <0>         0.0000
     95 H49        32.6605   11.4315    0.0000 H1        1 <0>         0.0000
     96 H50        33.3749   11.8440    0.0000 HC        1 <0>         0.0000
     97 H51        33.3749   11.8440    0.0000 HC        1 <0>         0.0000
     98 H52        34.0894   11.4315    0.0000 HC        1 <0>         0.0000
     99 H53        34.0894   10.6065    0.0000 HC        1 <0>         0.0000
    100 H54        34.0894   10.6065    0.0000 HC        1 <0>         0.0000
    101 H55        34.0894   10.6065    0.0000 HC        1 <0>         0.0000
    102 H56        34.8039   11.8440    0.0000 HC        1 <0>         0.0000
    103 H57        34.8039   11.8440    0.0000 HC        1 <0>         0.0000
    104 H58        35.5184   11.4315    0.0000 HC        1 <0>         0.0000
    105 H59        35.5184   11.4315    0.0000 HC        1 <0>         0.0000
    106 H60        36.2328   11.8440    0.0000 HC        1 <0>         0.0000
    107 H61        36.2328   11.8440    0.0000 HC        1 <0>         0.0000
    108 H62        36.9473   11.4315    0.0000 HC        1 <0>         0.0000
    109 H63        36.9473   10.6065    0.0000 HC        1 <0>         0.0000
    110 H64        36.9473   10.6065    0.0000 HC        1 <0>         0.0000
    111 H65        36.9473   10.6065    0.0000 HC        1 <0>         0.0000
    112 H66        37.6618   11.8440    0.0000 HC        1 <0>         0.0000
    113 H67        37.6618   11.8440    0.0000 HC        1 <0>         0.0000
    114 H68        38.3762   11.4315    0.0000 HC        1 <0>         0.0000
    115 H69        38.3762   11.4315    0.0000 HC        1 <0>         0.0000
    116 H70        39.0907   11.8440    0.0000 HC        1 <0>         0.0000
    117 H71        39.0907   11.8440    0.0000 HC        1 <0>         0.0000
    118 H72        39.8052   11.4315    0.0000 HC        1 <0>         0.0000
    119 H73        39.8052   10.6065    0.0000 HC        1 <0>         0.0000
    120 H74        39.8052   10.6065    0.0000 HC        1 <0>         0.0000
    121 H75        39.8052   10.6065    0.0000 HC        1 <0>         0.0000
    122 H76        40.5197   11.8440    0.0000 HC        1 <0>         0.0000
    123 H77        40.5197   11.8440    0.0000 HC        1 <0>         0.0000
    124 H78        41.2341   11.4315    0.0000 HC        1 <0>         0.0000
    125 H79        41.2341   11.4315    0.0000 HC        1 <0>         0.0000
    126 H80        41.9486   11.8440    0.0000 HC        1 <0>         0.0000
    127 H81        41.9486   11.8440    0.0000 HC        1 <0>         0.0000
    128 H82        42.6631   11.4315    0.0000 HC        1 <0>         0.0000
    129 H83        43.3775   11.8440    0.0000 HC        1 <0>         0.0000
    130 H84        43.3775   11.8440    0.0000 HC        1 <0>         0.0000
    131 H85        43.3775   11.8440    0.0000 HC        1 <0>         0.0000
    132 H86        42.6631   10.6065    0.0000 HC        1 <0>         0.0000
    133 H87        42.6631   10.6065    0.0000 HC        1 <0>         0.0000
    134 H88        42.6631   10.6065    0.0000 HC        1 <0>         0.0000
@<TRIPOS>BOND
     1    1    2 1
     2    2    3 1
     3    2    4 1
     4    4    5 1
     5    5    6 1
     6    6    7 1
     7    7    8 1
     8    7    9 1
     9    9   10 1
    10   10   11 1
    11   11   12 1
    12   12   13 1
    13   12   14 1
    14   14   15 1
    15   15   16 1
    16   16   17 1
    17   17   18 1
    18   17   19 1
    19   19   20 1
    20   20   21 1
    21   21   22 1
    22   22   23 1
    23   23   24 1
    24   24   25 1
    25   23   26 1
    26   26   27 1
    27   27   28 1
    28   28   29 1
    29   29   30 1
    30   29   31 1
    31   31   32 1
    32   32   33 1
    33   33   34 1
    34   34   35 1
    35   34   36 1
    36   36   37 1
    37   37   38 1
    38   38   39 1
    39   39   40 1
    40   39   41 1
    41   41   42 1
    42   42   43 1
    43   43   44 1
    44   44   45 1
    45   44   46 1
    46    1   47 1
    47    1   48 1
    48    1   49 1
    49    2   50 1
    50    3   51 1
    51    3   52 1
    52    3   53 1
    53    4   54 1
    54    4   55 1
    55    5   56 1
    56    5   57 1
    57    6   58 1
    58    6   59 1
    59    7   60 1
    60    8   61 1
    61    8   62 1
    62    8   63 1
    63    9   64 1
    64    9   65 1
    65   10   66 1
    66   10   67 1
    67   11   68 1
    68   11   69 1
    69   12   70 1
    70   13   71 1
    71   13   72 1
    72   13   73 1
    73   14   74 1
    74   14   75 1
    75   15   76 1
    76   15   77 1
    77   16   78 1
    78   16   79 1
    79   17   80 1
    80   18   81 1
    81   18   82 1
    82   18   83 1
    83   19   84 1
    84   19   85 1
    85   20   86 1
    86   20   87 1
    87   22   88 1
    88   22   89 1
    89   23   90 1
    90   24   91 1
    91   24   92 1
    92   25   93 1
    93   27   94 1
    94   27   95 1
    95   28   96 1
    96   28   97 1
    97   29   98 1
    98   30   99 1
    99   30  100 1
   100   30  101 1
   101   31  102 1
   102   31  103 1
   103   32  104 1
   104   32  105 1
   105   33  106 1
   106   33  107 1
   107   34  108 1
   108   35  109 1
   109   35  110 1
   110   35  111 1
   111   36  112 1
   112   36  113 1
   113   37  114 1
   114   37  115 1
   115   38  116 1
   116   38  117 1
   117   39  118 1
   118   40  119 1
   119   40  120 1
   120   40  121 1
   121   41  122 1
   122   41  123 1
   123   42  124 1
   124   42  125 1
   125   43  126 1
   126   43  127 1
   127   44  128 1
   128   45  129 1
   129   45  130 1
   130   45  131 1
   131   46  132 1
   132   46  133 1
   133   46  134 1
@<TRIPOS>MOLECULE
*****
   23    23     0     0     0
SMALL
NO_CHARGES

@<TRIPOS>ATOM
      1 O1          2.1434    1.2375    0.0000 OH        1 <0>         0.0000
      2 C1          1.4289    0.8250    0.0000 CT        1 <0>         0.0000
      3 O2          1.4289    0.0000    0.0000 OS        1 <0>         0.0000
      4 C2          0.7145   -0.4125    0.0000 CT        1 <0>         0.0000
      5 C3          0.0000    0.0000    0.0000 CT        1 <0>         0.0000
      6 O3         -0.7145   -0.4125    0.0000 OH        1 <0>         0.0000
      7 C4          0.0000    0.8250    0.0000 CT        1 <0>         0.0000
      8 O4         -0.7145    1.2375    0.0000 OH        1 <0>         0.0000
      9 C5          0.7145    1.2375    0.0000 CT        1 <0>         0.0000
     10 O5          0.7145    2.0625    0.0000 OH        1 <0>         0.0000
     11 C6          0.7145   -1.2375    0.0000 C         1 <0>         0.0000
     12 O6          1.4289   -1.6500    0.0000 OH        1 <0>         0.0000
     13 O7          0.0000   -1.6500    0.0000 O         1 <0>         0.0000
     14 H1          2.1434    1.2375    0.0000 HO        1 <0>         0.0000
     15 H2          1.4289    0.8250    0.0000 H2        1 <0>         0.0000
     16 H3          0.7145   -0.4125    0.0000 H1        1 <0>         0.0000
     17 H4          0.0000    0.0000    0.0000 H1        1 <0>         0.0000
     18 H5         -0.7145   -0.4125    0.0000 HO        1 <0>         0.0000
     19 H6          0.0000    0.8250    0.0000 H1        1 <0>         0.0000
     20 H7         -0.7145    1.2375    0.0000 HO        1 <0>         0.0000
     21 H8          0.7145    1.2375    0.0000 H1        1 <0>         0.0000
     22 H9          0.7145    2.0625    0.0000 HO        1 <0>         0.0000
     23 H10         1.4289   -1.6500    0.0000 HO        1 <0>         0.0000
@<TRIPOS>BOND
     1    1    2 1
     2    2    3 1
     3    3    4 1
     4    4    5 1
     5    5    6 1
     6    5    7 1
     7    7    8 1
     8    7    9 1
     9    2    9 1
    10    9   10 1
    11    4   11 1
    12   11   12 1
    13   11   13 2
    14    1   14 1
    15    2   15 1
    16    4   16 1
    17    5   17 1
    18    6   18 1
    19    7   19 1
    20    8   20 1
    21    9   21 1
    22   10   22 1
    23   12   23 1
@<TRIPOS>MOLECULE
*****
   62    66     0     0     0
SMALL
NO_CHARGES

@<TRIPOS>ATOM
      1 C1          4.5466   -0.5086    0.0000 CT        1 <0>         0.0000
      2 C2          4.8269    0.2673    0.0000 CT        1 <0>         0.0000
      3 C3          5.3587   -0.3634    0.0000 CT        1 <0>         0.0000
      4 C4          6.1708   -0.2182    0.0000 CT        1 <0>         0.0000
      5 C5          6.4511    0.5577    0.0000 CT        1 <0>         0.0000
      6 O1          7.2632    0.7029    0.0000 OH        1 <0>         0.0000
      7 C6          5.9193    1.1884    0.0000 CT        1 <0>         0.0000
      8 C7          5.1072    1.0432    0.0000 CT        1 <0>         0.0000
      9 C8          4.5754    1.6739    0.0000 CT        1 <0>         0.0000
     10 C9          3.7633    1.5287    0.0000 CT        1 <0>         0.0000
     11 C10         3.4830    0.7528    0.0000 CT        1 <0>         0.0000
     12 C11         4.0148    0.1221    0.0000 CT        1 <0>         0.0000
     13 C12         3.7345   -0.6539    0.0000 CT        1 <0>         0.0000
     14 C13         2.9224   -0.7991    0.0000 CT        1 <0>         0.0000
     15 O2          2.6421   -1.5750    0.0000 OH        1 <0>         0.0000
     16 C14         2.3905   -0.1684    0.0000 CT        1 <0>         0.0000
     17 C15         2.0307   -0.9107    0.0000 CT        1 <0>         0.0000
     18 C16         1.5660   -0.1416    0.0000 CT        1 <0>         0.0000
     19 C17         1.3367    0.6509    0.0000 CT        1 <0>         0.0000
     20 C18         2.0195    1.1139    0.0000 CT        1 <0>         0.0000
     21 C19         2.6708    0.6076    0.0000 CT        1 <0>         0.0000
     22 O3          2.8685    1.4085    0.0000 OH        1 <0>         0.0000
     23 C20         1.0596   -0.7929    0.0000 CM        1 <0>         0.0000
     24 C21         1.2889   -1.5854    0.0000 CM        1 <0>         0.0000
     25 C22         0.6061   -2.0484    0.0000 C         1 <0>         0.0000
     26 O4          0.5793   -2.8729    0.0000 O         1 <0>         0.0000
     27 O5         -0.0452   -1.5420    0.0000 OS        1 <0>         0.0000
     28 C23         0.2351   -0.7661    0.0000 CT        1 <0>         0.0000
     29 H1          4.5466   -0.5086    0.0000 HC        1 <0>         0.0000
     30 H2          4.5466   -0.5086    0.0000 HC        1 <0>         0.0000
     31 H3          4.5466   -0.5086    0.0000 HC        1 <0>         0.0000
     32 H4          5.3587   -0.3634    0.0000 HC        1 <0>         0.0000
     33 H5          5.3587   -0.3634    0.0000 HC        1 <0>         0.0000
     34 H6          6.1708   -0.2182    0.0000 HC        1 <0>         0.0000
     35 H7          6.1708   -0.2182    0.0000 HC        1 <0>         0.0000
     36 H8          6.4511    0.5577    0.0000 H1        1 <0>         0.0000
     37 H9          7.2632    0.7029    0.0000 HO        1 <0>         0.0000
     38 H10         5.9193    1.1884    0.0000 HC        1 <0>         0.0000
     39 H11         5.9193    1.1884    0.0000 HC        1 <0>         0.0000
     40 H12         5.1072    1.0432    0.0000 HC        1 <0>         0.0000
     41 H13         4.5754    1.6739    0.0000 HC        1 <0>         0.0000
     42 H14         4.5754    1.6739    0.0000 HC        1 <0>         0.0000
     43 H15         3.7633    1.5287    0.0000 HC        1 <0>         0.0000
     44 H16         3.7633    1.5287    0.0000 HC        1 <0>         0.0000
     45 H17         3.4830    0.7528    0.0000 HC        1 <0>         0.0000
     46 H18         4.0148    0.1221    0.0000 HC        1 <0>         0.0000
     47 H19         3.7345   -0.6539    0.0000 HC        1 <0>         0.0000
     48 H20         3.7345   -0.6539    0.0000 HC        1 <0>         0.0000
     49 H21         2.9224   -0.7991    0.0000 H1        1 <0>         0.0000
     50 H22         2.6421   -1.5750    0.0000 HO        1 <0>         0.0000
     51 H23         2.0307   -0.9107    0.0000 HC        1 <0>         0.0000
     52 H24         2.0307   -0.9107    0.0000 HC        1 <0>         0.0000
     53 H25         2.0307   -0.9107    0.0000 HC        1 <0>         0.0000
     54 H26         1.5660   -0.1416    0.0000 HC        1 <0>         0.0000
     55 H27         1.3367    0.6509    0.0000 HC        1 <0>         0.0000
     56 H28         1.3367    0.6509    0.0000 HC        1 <0>         0.0000
     57 H29         2.0195    1.1139    0.0000 HC        1 <0>         0.0000
     58 H30         2.0195    1.1139    0.0000 HC        1 <0>         0.0000
     59 H31         2.8685    1.4085    0.0000 HO        1 <0>         0.0000
     60 H32         1.2889   -1.5854    0.0000 HA        1 <0>         0.0000
     61 H33         0.2351   -0.7661    0.0000 H1        1 <0>         0.0000
     62 H34         0.2351   -0.7661    0.0000 H1        1 <0>         0.0000
@<TRIPOS>BOND
     1    1    2 1
     2    2    3 1
     3    3    4 1
     4    4    5 1
     5    5    6 1
     6    5    7 1
     7    7    8 1
     8    2    8 1
     9    8    9 1
    10    9   10 1
    11   10   11 1
    12   11   12 1
    13    2   12 1
    14   12   13 1
    15   13   14 1
    16   14   15 1
    17   14   16 1
    18   16   17 1
    19   16   18 1
    20   18   19 1
    21   19   20 1
    22   20   21 1
    23   11   21 1
    24   16   21 1
    25   21   22 1
    26   18   23 1
    27   23   24 2
    28   24   25 1
    29   25   26 2
    30   25   27 1
    31   27   28 1
    32   23   28 1
    33    1   29 1
    34    1   30 1
    35    1   31 1
    36    3   32 1
    37    3   33 1
    38    4   34 1
    39    4   35 1
    40    5   36 1
    41    6   37 1
    42    7   38 1
    43    7   39 1
    44    8   40 1
    45    9   41 1
    46    9   42 1
    47   10   43 1
    48   10   44 1
    49   11   45 1
    50   12   46 1
    51   13   47 1
    52   13   48 1
    53   14   49 1
    54   15   50 1
    55   17   51 1
    56   17   52 1
    57   17   53 1
    58   18   54 1
    59   19   55 1
    60   19   56 1
    61   20   57 1
    62   20   58 1
    63   22   59 1
    64   24   60 1
    65   28   61 1
    66   28   62 1
@<TRIPOS>MOLECULE
*****
   22    21     0     0     0
SMALL
NO_CHARGES

@<TRIPOS>ATOM
      1 C1         -0.1914    0.7145    0.0000 CT        1 <0>         0.0000
      2 C2          0.5230    0.3020    0.0000 CT        1 <0>         0.0000
      3 C3          1.2375    0.7145    0.0000 CT        1 <0>         0.0000
      4 C4          1.6500    0.0000    0.0000 CT        1 <0>         0.0000
      5 O1          0.8250    1.4289    0.0000 OH        1 <0>         0.0000
      6 C5          1.9520    1.1270    0.0000 CT        1 <0>         0.0000
      7 O2          1.9520    1.9520    0.0000 OH        1 <0>         0.0000
      8 C6          2.6664    0.7145    0.0000 C         1 <0>         0.0000
      9 O3          3.3809    1.1270    0.0000 OH        1 <0>         0.0000
     10 O4          2.6664   -0.1105    0.0000 O         1 <0>         0.0000
     11 H1         -0.1914    0.7145    0.0000 HC        1 <0>         0.0000
     12 H2         -0.1914    0.7145    0.0000 HC        1 <0>         0.0000
     13 H3         -0.1914    0.7145    0.0000 HC        1 <0>         0.0000
     14 H4          0.5230    0.3020    0.0000 HC        1 <0>         0.0000
     15 H5          0.5230    0.3020    0.0000 HC        1 <0>         0.0000
     16 H6          1.6500    0.0000    0.0000 HC        1 <0>         0.0000
     17 H7          1.6500    0.0000    0.0000 HC        1 <0>         0.0000
     18 H8          1.6500    0.0000    0.0000 HC        1 <0>         0.0000
     19 H9          0.8250    1.4289    0.0000 HO        1 <0>         0.0000
     20 H10         1.9520    1.1270    0.0000 H1        1 <0>         0.0000
     21 H11         1.9520    1.9520    0.0000 HO        1 <0>         0.0000
     22 H12         3.3809    1.1270    0.0000 HO        1 <0>         0.0000
@<TRIPOS>BOND
     1    1    2 1
     2    2    3 1
     3    3    4 1
     4    3    5 1
     5    3    6 1
     6    6    7 1
     7    6    8 1
     8    8    9 1
     9    8   10 2
    10    1   11 1
    11    1   12 1
    12    1   13 1
    13    2   14 1
    14    2   15 1
    15    4   16 1
    16    4   17 1
    17    4   18 1
    18    5   19 1
    19    6   20 1
    20    7   21 1
    21    9   22 1
@<TRIPOS>MOLECULE
*****
   10     9     0     0     0
SMALL
NO_CHARGES

@<TRIPOS>ATOM
      1 O1          2.0625    0.7145    0.0000 OH        1 <0>         0.0000
      2 C1          1.2375    0.7145    0.0000 CT        1 <0>         0.0000
      3 C2          0.8250    1.4289    0.0000 C         1 <0>         0.0000
      4 O2          1.2375    2.1434    0.0000 O2        1 <0>         0.0000
      5 O3          0.0000    1.4289    0.0000 O2        1 <0>         0.0000
      6 C3          0.8250    0.0000    0.0000 C         1 <0>         0.0000
      7 O4          1.2375   -0.7145    0.0000 O2        1 <0>         0.0000
      8 O5          0.0000    0.0000    0.0000 O2        1 <0>         0.0000
      9 H1          2.0625    0.7145    0.0000 HO        1 <0>         0.0000
     10 H2          1.2375    0.7145    0.0000 H1        1 <0>         0.0000
@<TRIPOS>BOND
     1    1    2 1
     2    2    3 1
     3    3    4 1
     4    3    5 2
     5    2    6 1
     6    6    7 1
     7    6    8 2
     8    1    9 1
     9    2   10 1
@<TRIPOS>MOLECULE
DBF
   27    29     0     0     0
SMALL
NO_CHARGES

@<TRIPOS>ATOM
      1 C1          1.8556   -0.3029    0.0000 CA        1 <0>         0.0000
      2 C2          1.3035    0.3102    0.0000 CA        1 <0>         0.0000
      3 C3          0.4966    0.1387    0.0000 CB        1 <0>         0.0000
      4 C4          0.2416   -0.6459    0.0000 CB        1 <0>         0.0000
      5 C5          0.7937   -1.2590    0.0000 CA        1 <0>         0.0000
      6 C6          1.6006   -1.0875    0.0000 CA        1 <0>         0.0000
      7 O1         -0.1709    0.6236    0.0000 OS        1 <0>         0.0000
      8 C7         -1.6453    0.3102    0.0000 CA        1 <0>         0.0000
      9 C8         -0.8383    0.1387    0.0000 CB        1 <0>         0.0000
     10 C9         -0.5834   -0.6459    0.0000 CB        1 <0>         0.0000
     11 C10        -1.1354   -1.2590    0.0000 CA        1 <0>         0.0000
     12 C11        -1.9424   -1.0875    0.0000 CA        1 <0>         0.0000
     13 C12        -2.1973   -0.3029    0.0000 CA        1 <0>         0.0000
     14 O2          2.3654    1.2664    0.0000 O         1 <0>         0.0000
     15 C13         1.5585    1.0949    0.0000 C         1 <0>         0.0000
     16 O3          1.0064    1.7080    0.0000 OH        1 <0>         0.0000
     17 O4         -2.7072    1.2664    0.0000 OH        1 <0>         0.0000
     18 C14        -1.9002    1.0949    0.0000 C         1 <0>         0.0000
     19 O5         -1.3482    1.7080    0.0000 O         1 <0>         0.0000
     20 H1          1.8556   -0.3029    0.0000 HA        1 <0>         0.0000
     21 H2          0.7937   -1.2590    0.0000 HA        1 <0>         0.0000
     22 H3          1.6006   -1.0875    0.0000 HA        1 <0>         0.0000
     23 H4         -1.1354   -1.2590    0.0000 HA        1 <0>         0.0000
     24 H5         -1.9424   -1.0875    0.0000 HA        1 <0>         0.0000
     25 H6         -2.1973   -0.3029    0.0000 HA        1 <0>         0.0000
     26 H7          1.0064    1.7080    0.0000 HO        1 <0>         0.0000
     27 H8         -2.7072    1.2664    0.0000 HO        1 <0>         0.0000
@<TRIPOS>BOND
     1    1    2 ar
     2    1    6 ar
     3    2    3 ar
     4    2   15 1
     5    3    4 ar
     6    3    7 1
     7    4    5 ar
     8    4   10 1
     9    5    6 ar
    10    7    9 1
    11    8    9 ar
    12    8   13 ar
    13    8   18 1
    14    9   10 ar
    15   10   11 ar
    16   11   12 ar
    17   12   13 ar
    18   14   15 2
    19   15   16 1
    20   17   18 1
    21   18   19 2
    22    1   20 1
    23    5   21 1
    24    6   22 1
    25   11   23 1
    26   12   24 1
    27   13   25 1
    28   16   26 1
    29   17   27 1
@<TRIPOS>MOLECULE
*****
   12    11     0     0     0
SMALL
NO_CHARGES

@<TRIPOS>ATOM
      1 O1          1.2375    2.1434    0.0000 OH        1 <0>         0.0000
      2 C1          0.8250    1.4289    0.0000 CT        1 <0>         0.0000
      3 C2          1.2375    0.7145    0.0000 CT        1 <0>         0.0000
      4 C3          0.8250    0.0000    0.0000 C         1 <0>         0.0000
      5 O2          1.2375   -0.7145    0.0000 OH        1 <0>         0.0000
      6 O3          0.0000    0.0000    0.0000 O         1 <0>         0.0000
      7 H1          1.2375    2.1434    0.0000 HO        1 <0>         0.0000
      8 H2          0.8250    1.4289    0.0000 H1        1 <0>         0.0000
      9 H3          0.8250    1.4289    0.0000 H1        1 <0>         0.0000
     10 H4          1.2375    0.7145    0.0000 HC        1 <0>         0.0000
     11 H5          1.2375    0.7145    0.0000 HC        1 <0>         0.0000
     12 H6          1.2375   -0.7145    0.0000 HO        1 <0>         0.0000
@<TRIPOS>BOND
     1    1    2 1
     2    2    3 1
     3    3    4 1
     4    4    5 1
     5    4    6 2
     6    1    7 1
     7    2    8 1
     8    2    9 1
     9    3   10 1
    10    3   11 1
    11    5   12 1
@<TRIPOS>MOLECULE
*****
   81    84     0     0     0
SMALL
NO_CHARGES

@<TRIPOS>ATOM
      1 C1          4.9830   -1.5571    0.0000 CT        1 <0>         0.0000
      2 C2          5.2939   -0.7929    0.0000 CT        1 <0>         0.0000
      3 C3          6.1111   -0.6800    0.0000 CT        1 <0>         0.0000
      4 C4          6.6175   -1.3314    0.0000 CT        1 <0>         0.0000
      5 C5          7.4347   -1.2185    0.0000 CM        1 <0>         0.0000
      6 C6          7.7456   -0.4543    0.0000 CM        1 <0>         0.0000
      7 C7          7.2392    0.1970    0.0000 CT        1 <0>         0.0000
      8 C8          8.5628   -0.3415    0.0000 CT        1 <0>         0.0000
      9 C9          4.7875   -0.1416    0.0000 CT        1 <0>         0.0000
     10 C10         5.0168    0.6509    0.0000 CT        1 <0>         0.0000
     11 C11         4.3340    1.1139    0.0000 CT        1 <0>         0.0000
     12 C12         3.6826    0.6076    0.0000 CT        1 <0>         0.0000
     13 C13         3.4850    1.4085    0.0000 CT        1 <0>         0.0000
     14 C14         2.8705    0.7528    0.0000 CM        1 <0>         0.0000
     15 C15         2.3387    0.1221    0.0000 CM        1 <0>         0.0000
     16 C16         2.6190   -0.6539    0.0000 CT        1 <0>         0.0000
     17 C17         3.4311   -0.7991    0.0000 CT        1 <0>         0.0000
     18 C18         3.9629   -0.1684    0.0000 CT        1 <0>         0.0000
     19 C19         4.3228   -0.9107    0.0000 CT        1 <0>         0.0000
     20 C20         1.5266    0.2673    0.0000 CT        1 <0>         0.0000
     21 C21         1.8069   -0.5086    0.0000 CT        1 <0>         0.0000
     22 C22         0.9948   -0.3634    0.0000 CT        1 <0>         0.0000
     23 C23         0.1827   -0.2182    0.0000 CT        1 <0>         0.0000
     24 C24        -0.0976    0.5577    0.0000 CT        1 <0>         0.0000
     25 O1         -0.9098    0.7029    0.0000 OH        1 <0>         0.0000
     26 C25         0.4342    1.1884    0.0000 CT        1 <0>         0.0000
     27 C26        -0.2793    1.6026    0.0000 CT        1 <0>         0.0000
     28 C27         0.7182    1.9630    0.0000 CT        1 <0>         0.0000
     29 C28         1.2463    1.0432    0.0000 CT        1 <0>         0.0000
     30 C29         1.7781    1.6739    0.0000 CT        1 <0>         0.0000
     31 C30         2.5902    1.5287    0.0000 CT        1 <0>         0.0000
     32 H1          4.9830   -1.5571    0.0000 HC        1 <0>         0.0000
     33 H2          4.9830   -1.5571    0.0000 HC        1 <0>         0.0000
     34 H3          4.9830   -1.5571    0.0000 HC        1 <0>         0.0000
     35 H4          5.2939   -0.7929    0.0000 HC        1 <0>         0.0000
     36 H5          6.1111   -0.6800    0.0000 HC        1 <0>         0.0000
     37 H6          6.1111   -0.6800    0.0000 HC        1 <0>         0.0000
     38 H7          6.6175   -1.3314    0.0000 HC        1 <0>         0.0000
     39 H8          6.6175   -1.3314    0.0000 HC        1 <0>         0.0000
     40 H9          7.4347   -1.2185    0.0000 HA        1 <0>         0.0000
     41 H10         7.2392    0.1970    0.0000 HC        1 <0>         0.0000
     42 H11         7.2392    0.1970    0.0000 HC        1 <0>         0.0000
     43 H12         7.2392    0.1970    0.0000 HC        1 <0>         0.0000
     44 H13         8.5628   -0.3415    0.0000 HC        1 <0>         0.0000
     45 H14         8.5628   -0.3415    0.0000 HC        1 <0>         0.0000
     46 H15         8.5628   -0.3415    0.0000 HC        1 <0>         0.0000
     47 H16         4.7875   -0.1416    0.0000 HC        1 <0>         0.0000
     48 H17         5.0168    0.6509    0.0000 HC        1 <0>         0.0000
     49 H18         5.0168    0.6509    0.0000 HC        1 <0>         0.0000
     50 H19         4.3340    1.1139    0.0000 HC        1 <0>         0.0000
     51 H20         4.3340    1.1139    0.0000 HC        1 <0>         0.0000
     52 H21         3.4850    1.4085    0.0000 HC        1 <0>         0.0000
     53 H22         3.4850    1.4085    0.0000 HC        1 <0>         0.0000
     54 H23         3.4850    1.4085    0.0000 HC        1 <0>         0.0000
     55 H24         2.6190   -0.6539    0.0000 HC        1 <0>         0.0000
     56 H25         2.6190   -0.6539    0.0000 HC        1 <0>         0.0000
     57 H26         3.4311   -0.7991    0.0000 HC        1 <0>         0.0000
     58 H27         3.4311   -0.7991    0.0000 HC        1 <0>         0.0000
     59 H28         4.3228   -0.9107    0.0000 HC        1 <0>         0.0000
     60 H29         4.3228   -0.9107    0.0000 HC        1 <0>         0.0000
     61 H30         4.3228   -0.9107    0.0000 HC        1 <0>         0.0000
     62 H31         1.8069   -0.5086    0.0000 HC        1 <0>         0.0000
     63 H32         1.8069   -0.5086    0.0000 HC        1 <0>         0.0000
     64 H33         1.8069   -0.5086    0.0000 HC        1 <0>         0.0000
     65 H34         0.9948   -0.3634    0.0000 HC        1 <0>         0.0000
     66 H35         0.9948   -0.3634    0.0000 HC        1 <0>         0.0000
     67 H36         0.1827   -0.2182    0.0000 HC        1 <0>         0.0000
     68 H37         0.1827   -0.2182    0.0000 HC        1 <0>         0.0000
     69 H38        -0.0976    0.5577    0.0000 H1        1 <0>         0.0000
     70 H39        -0.9098    0.7029    0.0000 HO        1 <0>         0.0000
     71 H40        -0.2793    1.6026    0.0000 HC        1 <0>         0.0000
     72 H41        -0.2793    1.6026    0.0000 HC        1 <0>         0.0000
     73 H42        -0.2793    1.6026    0.0000 HC        1 <0>         0.0000
     74 H43         0.7182    1.9630    0.0000 HC        1 <0>         0.0000
     75 H44         0.7182    1.9630    0.0000 HC        1 <0>         0.0000
     76 H45         0.7182    1.9630    0.0000 HC        1 <0>         0.0000
     77 H46         1.2463    1.0432    0.0000 HC        1 <0>         0.0000
     78 H47         1.7781    1.6739    0.0000 HC        1 <0>         0.0000
     79 H48         1.7781    1.6739    0.0000 HC        1 <0>         0.0000
     80 H49         2.5902    1.5287    0.0000 HC        1 <0>         0.0000
     81 H50         2.5902    1.5287    0.0000 HC        1 <0>         0.0000
@<TRIPOS>BOND
     1    1    2 1
     2    2    3 1
     3    3    4 1
     4    4    5 1
     5    5    6 2
     6    6    7 1
     7    6    8 1
     8    2    9 1
     9    9   10 1
    10   10   11 1
    11   11   12 1
    12   12   13 1
    13   12   14 1
    14   14   15 2
    15   15   16 1
    16   16   17 1
    17   17   18 1
    18    9   18 1
    19   12   18 1
    20   18   19 1
    21   15   20 1
    22   20   21 1
    23   20   22 1
    24   22   23 1
    25   23   24 1
    26   24   25 1
    27   24   26 1
    28   26   27 1
    29   26   28 1
    30   26   29 1
    31   20   29 1
    32   29   30 1
    33   30   31 1
    34   14   31 1
    35    1   32 1
    36    1   33 1
    37    1   34 1
    38    2   35 1
    39    3   36 1
    40    3   37 1
    41    4   38 1
    42    4   39 1
    43    5   40 1
    44    7   41 1
    45    7   42 1
    46    7   43 1
    47    8   44 1
    48    8   45 1
    49    8   46 1
    50    9   47 1
    51   10   48 1
    52   10   49 1
    53   11   50 1
    54   11   51 1
    55   13   52 1
    56   13   53 1
    57   13   54 1
    58   16   55 1
    59   16   56 1
    60   17   57 1
    61   17   58 1
    62   19   59 1
    63   19   60 1
    64   19   61 1
    65   21   62 1
    66   21   63 1
    67   21   64 1
    68   22   65 1
    69   22   66 1
    70   23   67 1
    71   23   68 1
    72   24   69 1
    73   25   70 1
    74   27   71 1
    75   27   72 1
    76   27   73 1
    77   28   74 1
    78   28   75 1
    79   28   76 1
    80   29   77 1
    81   30   78 1
    82   30   79 1
    83   31   80 1
    84   31   81 1
@<TRIPOS>MOLECULE
*****
   19    19     0     0     0
SMALL
NO_CHARGES

@<TRIPOS>ATOM
      1 O1          0.7145    2.0625    0.0000 OH        1 <0>         0.0000
      2 C1          0.7145    1.2375    0.0000 CT        1 <0>         0.0000
      3 C2          1.4289    0.8250    0.0000 CT        1 <0>         0.0000
      4 C3          1.4289    0.0000    0.0000 CT        1 <0>         0.0000
      5 C4          0.7145   -0.4125    0.0000 CT        1 <0>         0.0000
      6 C5          0.0000    0.0000    0.0000 CT        1 <0>         0.0000
      7 C6          0.0000    0.8250    0.0000 CT        1 <0>         0.0000
      8 H1          0.7145    2.0625    0.0000 HO        1 <0>         0.0000
      9 H2          0.7145    1.2375    0.0000 H1        1 <0>         0.0000
     10 H3          1.4289    0.8250    0.0000 HC        1 <0>         0.0000
     11 H4          1.4289    0.8250    0.0000 HC        1 <0>         0.0000
     12 H5          1.4289    0.0000    0.0000 HC        1 <0>         0.0000
     13 H6          1.4289    0.0000    0.0000 HC        1 <0>         0.0000
     14 H7          0.7145   -0.4125    0.0000 HC        1 <0>         0.0000
     15 H8          0.7145   -0.4125    0.0000 HC        1 <0>         0.0000
     16 H9          0.0000    0.0000    0.0000 HC        1 <0>         0.0000
     17 H10         0.0000    0.0000    0.0000 HC        1 <0>         0.0000
     18 H11         0.0000    0.8250    0.0000 HC        1 <0>         0.0000
     19 H12         0.0000    0.8250    0.0000 HC        1 <0>         0.0000
@<TRIPOS>BOND
     1    1    2 1
     2    2    3 1
     3    3    4 1
     4    4    5 1
     5    5    6 1
     6    6    7 1
     7    2    7 1
     8    1    8 1
     9    2    9 1
    10    3   10 1
    11    3   11 1
    12    4   12 1
    13    4   13 1
    14    5   14 1
    15    5   15 1
    16    6   16 1
    17    6   17 1
    18    7   18 1
    19    7   19 1
@<TRIPOS>MOLECULE
12H
   39    38     0     0     0
SMALL
NO_CHARGES

@<TRIPOS>ATOM
      1 C1         -3.7259    0.2274    0.0000 CT        1 <0>         0.0000
      2 C2         -3.0113   -0.1851    0.0000 CT        1 <0>         0.0000
      3 C3         -2.2969    0.2274    0.0000 CT        1 <0>         0.0000
      4 C4         -1.5823   -0.1851    0.0000 CT        1 <0>         0.0000
      5 C5         -0.8678    0.2274    0.0000 CT        1 <0>         0.0000
      6 C6         -0.1533   -0.1851    0.0000 CT        1 <0>         0.0000
      7 C7          0.5612    0.2274    0.0000 CT        1 <0>         0.0000
      8 C8          1.2758   -0.1851    0.0000 CT        1 <0>         0.0000
      9 C9          1.9903    0.2274    0.0000 CT        1 <0>         0.0000
     10 C10         2.7048   -0.1851    0.0000 CT        1 <0>         0.0000
     11 C11         3.4194    0.2274    0.0000 CT        1 <0>         0.0000
     12 C12         4.1339   -0.1851    0.0000 C         1 <0>         0.0000
     13 O1         -4.4404   -0.1851    0.0000 OH        1 <0>         0.0000
     14 O2          4.8484    0.2274    0.0000 O         1 <0>         0.0000
     15 O3          4.1339   -1.0102    0.0000 OH        1 <0>         0.0000
     16 H1         -3.7259    0.2274    0.0000 H1        1 <0>         0.0000
     17 H2         -3.7259    0.2274    0.0000 H1        1 <0>         0.0000
     18 H3         -3.0113   -0.1851    0.0000 HC        1 <0>         0.0000
     19 H4         -3.0113   -0.1851    0.0000 HC        1 <0>         0.0000
     20 H5         -2.2969    0.2274    0.0000 HC        1 <0>         0.0000
     21 H6         -2.2969    0.2274    0.0000 HC        1 <0>         0.0000
     22 H7         -1.5823   -0.1851    0.0000 HC        1 <0>         0.0000
     23 H8         -1.5823   -0.1851    0.0000 HC        1 <0>         0.0000
     24 H9         -0.8678    0.2274    0.0000 HC        1 <0>         0.0000
     25 H10        -0.8678    0.2274    0.0000 HC        1 <0>         0.0000
     26 H11        -0.1533   -0.1851    0.0000 HC        1 <0>         0.0000
     27 H12        -0.1533   -0.1851    0.0000 HC        1 <0>         0.0000
     28 H13         0.5612    0.2274    0.0000 HC        1 <0>         0.0000
     29 H14         0.5612    0.2274    0.0000 HC        1 <0>         0.0000
     30 H15         1.2758   -0.1851    0.0000 HC        1 <0>         0.0000
     31 H16         1.2758   -0.1851    0.0000 HC        1 <0>         0.0000
     32 H17         1.9903    0.2274    0.0000 HC        1 <0>         0.0000
     33 H18         1.9903    0.2274    0.0000 HC        1 <0>         0.0000
     34 H19         2.7048   -0.1851    0.0000 HC        1 <0>         0.0000
     35 H20         2.7048   -0.1851    0.0000 HC        1 <0>         0.0000
     36 H21         3.4194    0.2274    0.0000 HC        1 <0>         0.0000
     37 H22         3.4194    0.2274    0.0000 HC        1 <0>         0.0000
     38 H23        -4.4404   -0.1851    0.0000 HO        1 <0>         0.0000
     39 H24         4.1339   -1.0102    0.0000 HO        1 <0>         0.0000
@<TRIPOS>BOND
     1    1    2 1
     2    1   13 1
     3    2    3 1
     4    3    4 1
     5    4    5 1
     6    5    6 1
     7    6    7 1
     8    7    8 1
     9    8    9 1
    10    9   10 1
    11   10   11 1
    12   11   12 1
    13   12   14 2
    14   12   15 1
    15    1   16 1
    16    1   17 1
    17    2   18 1
    18    2   19 1
    19    3   20 1
    20    3   21 1
    21    4   22 1
    22    4   23 1
    23    5   24 1
    24    5   25 1
    25    6   26 1
    26    6   27 1
    27    7   28 1
    28    7   29 1
    29    8   30 1
    30    8   31 1
    31    9   32 1
    32    9   33 1
    33   10   34 1
    34   10   35 1
    35   11   36 1
    36   11   37 1
    37   13   38 1
    38   15   39 1
@<TRIPOS>MOLECULE
*****
   26    25     0     0     0
SMALL
NO_CHARGES

@<TRIPOS>ATOM
      1 C1          1.7605   -1.8414    0.0000 CT        1 <0>         0.0000
      2 C2          2.4750   -1.4289    0.0000 CT        1 <0>         0.0000
      3 C3          3.1895   -1.8414    0.0000 C         1 <0>         0.0000
      4 O1          3.1895   -2.6664    0.0000 O         1 <0>         0.0000
      5 C4          3.9039   -1.4289    0.0000 CT        1 <0>         0.0000
      6 C5          4.6184   -1.8414    0.0000 CT        1 <0>         0.0000
      7 C6          5.3329   -1.4289    0.0000 CT        1 <0>         0.0000
      8 C7          6.0474   -1.0164    0.0000 CT        1 <0>         0.0000
      9 C8          5.7454   -2.1434    0.0000 CT        1 <0>         0.0000
     10 O2          4.9204   -0.7145    0.0000 OH        1 <0>         0.0000
     11 H1          1.7605   -1.8414    0.0000 HC        1 <0>         0.0000
     12 H2          1.7605   -1.8414    0.0000 HC        1 <0>         0.0000
     13 H3          1.7605   -1.8414    0.0000 HC        1 <0>         0.0000
     14 H4          2.4750   -1.4289    0.0000 HC        1 <0>         0.0000
     15 H5          2.4750   -1.4289    0.0000 HC        1 <0>         0.0000
     16 H6          3.9039   -1.4289    0.0000 HC        1 <0>         0.0000
     17 H7          3.9039   -1.4289    0.0000 HC        1 <0>         0.0000
     18 H8          4.6184   -1.8414    0.0000 HC        1 <0>         0.0000
     19 H9          4.6184   -1.8414    0.0000 HC        1 <0>         0.0000
     20 H10         6.0474   -1.0164    0.0000 HC        1 <0>         0.0000
     21 H11         6.0474   -1.0164    0.0000 HC        1 <0>         0.0000
     22 H12         6.0474   -1.0164    0.0000 HC        1 <0>         0.0000
     23 H13         5.7454   -2.1434    0.0000 HC        1 <0>         0.0000
     24 H14         5.7454   -2.1434    0.0000 HC        1 <0>         0.0000
     25 H15         5.7454   -2.1434    0.0000 HC        1 <0>         0.0000
     26 H16         4.9204   -0.7145    0.0000 HO        1 <0>         0.0000
@<TRIPOS>BOND
     1    1    2 1
     2    2    3 1
     3    3    4 2
     4    3    5 1
     5    5    6 1
     6    6    7 1
     7    7    8 1
     8    7    9 1
     9    7   10 1
    10    1   11 1
    11    1   12 1
    12    1   13 1
    13    2   14 1
    14    2   15 1
    15    5   16 1
    16    5   17 1
    17    6   18 1
    18    6   19 1
    19    8   20 1
    20    8   21 1
    21    8   22 1
    22    9   23 1
    23    9   24 1
    24    9   25 1
    25   10   26 1
@<TRIPOS>MOLECULE
*****
   20    20     0     0     0
SMALL
NO_CHARGES

@<TRIPOS>ATOM
      1 C1         -1.1908    1.7138    0.0000 CT        1 <0>         0.0000
      2 C2         -0.4763    2.1263    0.0000 CT        1 <0>         0.0000
      3 C3          0.2382    1.7138    0.0000 CT        1 <0>         0.0000
      4 C4          0.2382    0.8888    0.0000 CJ        1 <0>         0.0000
      5 C5          0.6507    0.1743    0.0000 CJ        1 <0>         0.0000
      6 C6         -0.1743    0.1743    0.0000 CJ        1 <0>         0.0000
      7 C7         -0.4763    2.9513    0.0000 C         1 <0>         0.0000
      8 O1         -1.1908    3.3638    0.0000 O         1 <0>         0.0000
      9 H1         -1.1908    1.7138    0.0000 HC        1 <0>         0.0000
     10 H2         -1.1908    1.7138    0.0000 HC        1 <0>         0.0000
     11 H3         -1.1908    1.7138    0.0000 HC        1 <0>         0.0000
     12 H4         -0.4763    2.1263    0.0000 HC        1 <0>         0.0000
     13 H5          0.2382    1.7138    0.0000 HC        1 <0>         0.0000
     14 H6          0.2382    1.7138    0.0000 HC        1 <0>         0.0000
     15 H7          0.2382    0.8888    0.0000 HC        1 <0>         0.0000
     16 H8          0.6507    0.1743    0.0000 HC        1 <0>         0.0000
     17 H9          0.6507    0.1743    0.0000 HC        1 <0>         0.0000
     18 H10        -0.1743    0.1743    0.0000 HC        1 <0>         0.0000
     19 H11        -0.1743    0.1743    0.0000 HC        1 <0>         0.0000
     20 H12        -0.4763    2.9513    0.0000 H4        1 <0>         0.0000
@<TRIPOS>BOND
     1    1    2 1
     2    2    3 1
     3    3    4 1
     4    4    5 1
     5    5    6 1
     6    4    6 1
     7    2    7 1
     8    7    8 2
     9    1    9 1
    10    1   10 1
    11    1   11 1
    12    2   12 1
    13    3   13 1
    14    3   14 1
    15    4   15 1
    16    5   16 1
    17    5   17 1
    18    6   18 1
    19    6   19 1
    20    7   20 1
@<TRIPOS>MOLECULE
*****
   17    16     0     0     0
SMALL
NO_CHARGES

@<TRIPOS>ATOM
      1 C1          1.2375    2.1434    0.0000 CT        1 <0>         0.0000
      2 C2          0.8250    1.4289    0.0000 CT        1 <0>         0.0000
      3 C3          1.2375    0.7145    0.0000 CT        1 <0>         0.0000
      4 C4          2.0625    0.7145    0.0000 CT        1 <0>         0.0000
      5 C5          0.8250    0.0000    0.0000 C         1 <0>         0.0000
      6 O1          1.2375   -0.7145    0.0000 OH        1 <0>         0.0000
      7 O2          0.0000    0.0000    0.0000 O         1 <0>         0.0000
      8 H1          1.2375    2.1434    0.0000 HC        1 <0>         0.0000
      9 H2          1.2375    2.1434    0.0000 HC        1 <0>         0.0000
     10 H3          1.2375    2.1434    0.0000 HC        1 <0>         0.0000
     11 H4          0.8250    1.4289    0.0000 HC        1 <0>         0.0000
     12 H5          0.8250    1.4289    0.0000 HC        1 <0>         0.0000
     13 H6          1.2375    0.7145    0.0000 HC        1 <0>         0.0000
     14 H7          2.0625    0.7145    0.0000 HC        1 <0>         0.0000
     15 H8          2.0625    0.7145    0.0000 HC        1 <0>         0.0000
     16 H9          2.0625    0.7145    0.0000 HC        1 <0>         0.0000
     17 H10         1.2375   -0.7145    0.0000 HO        1 <0>         0.0000
@<TRIPOS>BOND
     1    1    2 1
     2    2    3 1
     3    3    4 1
     4    3    5 1
     5    5    6 1
     6    5    7 2
     7    1    8 1
     8    1    9 1
     9    1   10 1
    10    2   11 1
    11    2   12 1
    12    3   13 1
    13    4   14 1
    14    4   15 1
    15    4   16 1
    16    6   17 1
@<TRIPOS>MOLECULE
*****
   17    16     0     0     0
SMALL
NO_CHARGES

@<TRIPOS>ATOM
      1 C1          1.2375    2.1434    0.0000 CT        1 <0>         0.0000
      2 C2          0.8250    1.4289    0.0000 CT        1 <0>         0.0000
      3 C3          0.0000    1.4289    0.0000 CT        1 <0>         0.0000
      4 C4          1.2375    0.7145    0.0000 CT        1 <0>         0.0000
      5 C5          0.8250    0.0000    0.0000 C         1 <0>         0.0000
      6 O1          1.2375   -0.7145    0.0000 OH        1 <0>         0.0000
      7 O2          0.0000    0.0000    0.0000 O         1 <0>         0.0000
      8 H1          1.2375    2.1434    0.0000 HC        1 <0>         0.0000
      9 H2          1.2375    2.1434    0.0000 HC        1 <0>         0.0000
     10 H3          1.2375    2.1434    0.0000 HC        1 <0>         0.0000
     11 H4          0.8250    1.4289    0.0000 HC        1 <0>         0.0000
     12 H5          0.0000    1.4289    0.0000 HC        1 <0>         0.0000
     13 H6          0.0000    1.4289    0.0000 HC        1 <0>         0.0000
     14 H7          0.0000    1.4289    0.0000 HC        1 <0>         0.0000
     15 H8          1.2375    0.7145    0.0000 HC        1 <0>         0.0000
     16 H9          1.2375    0.7145    0.0000 HC        1 <0>         0.0000
     17 H10         1.2375   -0.7145    0.0000 HO        1 <0>         0.0000
@<TRIPOS>BOND
     1    1    2 1
     2    2    3 1
     3    2    4 1
     4    4    5 1
     5    5    6 1
     6    5    7 2
     7    1    8 1
     8    1    9 1
     9    1   10 1
    10    2   11 1
    11    3   12 1
    12    3   13 1
    13    3   14 1
    14    4   15 1
    15    4   16 1
    16    6   17 1
@<TRIPOS>MOLECULE
*****
   56    55     0     0     0
SMALL
NO_CHARGES

@<TRIPOS>ATOM
      1 C1         -2.4750   -2.8579    0.0000 CT        1 <0>         0.0000
      2 C2         -1.6500   -2.8579    0.0000 CT        1 <0>         0.0000
      3 C3         -1.2375   -3.5724    0.0000 CM        1 <0>         0.0000
      4 C4         -0.4125   -3.5724    0.0000 CM        1 <0>         0.0000
      5 C5          0.0000   -4.2868    0.0000 CT        1 <0>         0.0000
      6 C6          0.8250   -4.2868    0.0000 CM        1 <0>         0.0000
      7 C7          1.2375   -3.5724    0.0000 CM        1 <0>         0.0000
      8 C8          2.0625   -3.5724    0.0000 CT        1 <0>         0.0000
      9 C9          2.4750   -2.8579    0.0000 CM        1 <0>         0.0000
     10 C10         3.3000   -2.8579    0.0000 CM        1 <0>         0.0000
     11 C11         3.7125   -2.1434    0.0000 CT        1 <0>         0.0000
     12 C12         3.3000   -1.4289    0.0000 CM        1 <0>         0.0000
     13 C13         3.7125   -0.7145    0.0000 CM        1 <0>         0.0000
     14 C14         3.3000    0.0000    0.0000 CT        1 <0>         0.0000
     15 C15         2.4750    0.0000    0.0000 CM        1 <0>         0.0000
     16 C16         2.0625    0.7145    0.0000 CM        1 <0>         0.0000
     17 C17         1.2375    0.7145    0.0000 CT        1 <0>         0.0000
     18 C18         0.8250    0.0000    0.0000 CM        1 <0>         0.0000
     19 C19         0.0000    0.0000    0.0000 CM        1 <0>         0.0000
     20 C20        -0.4125   -0.7145    0.0000 CT        1 <0>         0.0000
     21 C21         0.0000   -1.4289    0.0000 CT        1 <0>         0.0000
     22 C22        -0.4125   -2.1434    0.0000 C         1 <0>         0.0000
     23 O1         -1.2375   -2.1434    0.0000 OH        1 <0>         0.0000
     24 O2          0.0000   -2.8579    0.0000 O         1 <0>         0.0000
     25 H1         -2.4750   -2.8579    0.0000 HC        1 <0>         0.0000
     26 H2         -2.4750   -2.8579    0.0000 HC        1 <0>         0.0000
     27 H3         -2.4750   -2.8579    0.0000 HC        1 <0>         0.0000
     28 H4         -1.6500   -2.8579    0.0000 HC        1 <0>         0.0000
     29 H5         -1.6500   -2.8579    0.0000 HC        1 <0>         0.0000
     30 H6         -1.2375   -3.5724    0.0000 HA        1 <0>         0.0000
     31 H7         -0.4125   -3.5724    0.0000 HA        1 <0>         0.0000
     32 H8          0.0000   -4.2868    0.0000 HC        1 <0>         0.0000
     33 H9          0.0000   -4.2868    0.0000 HC        1 <0>         0.0000
     34 H10         0.8250   -4.2868    0.0000 HA        1 <0>         0.0000
     35 H11         1.2375   -3.5724    0.0000 HA        1 <0>         0.0000
     36 H12         2.0625   -3.5724    0.0000 HC        1 <0>         0.0000
     37 H13         2.0625   -3.5724    0.0000 HC        1 <0>         0.0000
     38 H14         2.4750   -2.8579    0.0000 HA        1 <0>         0.0000
     39 H15         3.3000   -2.8579    0.0000 HA        1 <0>         0.0000
     40 H16         3.7125   -2.1434    0.0000 HC        1 <0>         0.0000
     41 H17         3.7125   -2.1434    0.0000 HC        1 <0>         0.0000
     42 H18         3.3000   -1.4289    0.0000 HA        1 <0>         0.0000
     43 H19         3.7125   -0.7145    0.0000 HA        1 <0>         0.0000
     44 H20         3.3000    0.0000    0.0000 HC        1 <0>         0.0000
     45 H21         3.3000    0.0000    0.0000 HC        1 <0>         0.0000
     46 H22         2.4750    0.0000    0.0000 HA        1 <0>         0.0000
     47 H23         2.0625    0.7145    0.0000 HA        1 <0>         0.0000
     48 H24         1.2375    0.7145    0.0000 HC        1 <0>         0.0000
     49 H25         1.2375    0.7145    0.0000 HC        1 <0>         0.0000
     50 H26         0.8250    0.0000    0.0000 HA        1 <0>         0.0000
     51 H27         0.0000    0.0000    0.0000 HA        1 <0>         0.0000
     52 H28        -0.4125   -0.7145    0.0000 HC        1 <0>         0.0000
     53 H29        -0.4125   -0.7145    0.0000 HC        1 <0>         0.0000
     54 H30         0.0000   -1.4289    0.0000 HC        1 <0>         0.0000
     55 H31         0.0000   -1.4289    0.0000 HC        1 <0>         0.0000
     56 H32        -1.2375   -2.1434    0.0000 HO        1 <0>         0.0000
@<TRIPOS>BOND
     1    1    2 1
     2    2    3 1
     3    3    4 2
     4    4    5 1
     5    5    6 1
     6    6    7 2
     7    7    8 1
     8    8    9 1
     9    9   10 2
    10   10   11 1
    11   11   12 1
    12   12   13 2
    13   13   14 1
    14   14   15 1
    15   15   16 2
    16   16   17 1
    17   17   18 1
    18   18   19 2
    19   19   20 1
    20   20   21 1
    21   21   22 1
    22   22   23 1
    23   22   24 2
    24    1   25 1
    25    1   26 1
    26    1   27 1
    27    2   28 1
    28    2   29 1
    29    3   30 1
    30    4   31 1
    31    5   32 1
    32    5   33 1
    33    6   34 1
    34    7   35 1
    35    8   36 1
    36    8   37 1
    37    9   38 1
    38   10   39 1
    39   11   40 1
    40   11   41 1
    41   12   42 1
    42   13   43 1
    43   14   44 1
    44   14   45 1
    45   15   46 1
    46   16   47 1
    47   17   48 1
    48   17   49 1
    49   18   50 1
    50   19   51 1
    51   20   52 1
    52   20   53 1
    53   21   54 1
    54   21   55 1
    55   23   56 1
@<TRIPOS>MOLECULE
*****
   19    19     0     0     0
SMALL
NO_CHARGES

@<TRIPOS>ATOM
      1 C1          2.1434    2.0625    0.0000 CT        1 <0>         0.0000
      2 O1          2.1434    1.2375    0.0000 OS        1 <0>         0.0000
      3 C2          1.4289    0.8250    0.0000 CA        1 <0>         0.0000
      4 C3          1.4289    0.0000    0.0000 CA        1 <0>         0.0000
      5 C4          0.7145   -0.4125    0.0000 CA        1 <0>         0.0000
      6 O2          0.7145   -1.2375    0.0000 OS        1 <0>         0.0000
      7 O3          1.4289   -1.6500    0.0000 OH        1 <0>         0.0000
      8 C5          0.0000    0.0000    0.0000 CA        1 <0>         0.0000
      9 C6          0.0000    0.8250    0.0000 CA        1 <0>         0.0000
     10 C7          0.7145    1.2375    0.0000 CA        1 <0>         0.0000
     11 O4          0.7145    2.0625    0.0000 OH        1 <0>         0.0000
     12 H1          2.1434    2.0625    0.0000 H1        1 <0>         0.0000
     13 H2          2.1434    2.0625    0.0000 H1        1 <0>         0.0000
     14 H3          2.1434    2.0625    0.0000 H1        1 <0>         0.0000
     15 H4          1.4289    0.0000    0.0000 HA        1 <0>         0.0000
     16 H5          1.4289   -1.6500    0.0000 HO        1 <0>         0.0000
     17 H6          0.0000    0.0000    0.0000 HA        1 <0>         0.0000
     18 H7          0.0000    0.8250    0.0000 HA        1 <0>         0.0000
     19 H8          0.7145    2.0625    0.0000 HO        1 <0>         0.0000
@<TRIPOS>BOND
     1    1    2 1
     2    2    3 1
     3    3    4 ar
     4    4    5 ar
     5    5    6 1
     6    6    7 1
     7    5    8 ar
     8    8    9 ar
     9    9   10 ar
    10    3   10 ar
    11   10   11 1
    12    1   12 1
    13    1   13 1
    14    1   14 1
    15    4   15 1
    16    7   16 1
    17    8   17 1
    18    9   18 1
    19   11   19 1
@<TRIPOS>MOLECULE
*****
   11    10     0     0     0
SMALL
NO_CHARGES

@<TRIPOS>ATOM
      1 C1          0.8250    1.4289    0.0000 CT        1 <0>         0.0000
      2 C2          1.2375    0.7145    0.0000 CT        1 <0>         0.0000
      3 C3          0.8250    0.0000    0.0000 C         1 <0>         0.0000
      4 O1          1.2375   -0.7145    0.0000 OH        1 <0>         0.0000
      5 O2          0.0000    0.0000    0.0000 O         1 <0>         0.0000
      6 H1          0.8250    1.4289    0.0000 HC        1 <0>         0.0000
      7 H2          0.8250    1.4289    0.0000 HC        1 <0>         0.0000
      8 H3          0.8250    1.4289    0.0000 HC        1 <0>         0.0000
      9 H4          1.2375    0.7145    0.0000 HC        1 <0>         0.0000
     10 H5          1.2375    0.7145    0.0000 HC        1 <0>         0.0000
     11 H6          1.2375   -0.7145    0.0000 HO        1 <0>         0.0000
@<TRIPOS>BOND
     1    1    2 1
     2    2    3 1
     3    3    4 1
     4    3    5 2
     5    1    6 1
     6    1    7 1
     7    1    8 1
     8    2    9 1
     9    2   10 1
    10    4   11 1
@<TRIPOS>MOLECULE
DLG
   41    41     0     0     0
SMALL
NO_CHARGES

@<TRIPOS>ATOM
      1 C1         -0.9820    0.1327    0.0000 CT        1 <0>         0.0000
      2 C2         -0.9820   -0.6923    0.0000 CT        1 <0>         0.0000
      3 C3         -1.6965   -1.1048    0.0000 CT        1 <0>         0.0000
      4 C4         -2.4110   -0.6923    0.0000 CT        1 <0>         0.0000
      5 C5         -2.4110    0.1327    0.0000 CT        1 <0>         0.0000
      6 C6         -3.1254    0.5452    0.0000 CT        1 <0>         0.0000
      7 O1         -0.2675    0.5452    0.0000 OS        1 <0>         0.0000
      8 O2         -0.2675   -1.1048    0.0000 OH        1 <0>         0.0000
      9 O3         -3.1254   -1.1048    0.0000 OH        1 <0>         0.0000
     10 O4         -1.6965    0.5452    0.0000 OS        1 <0>         0.0000
     11 O5         -3.1254    1.3702    0.0000 OH        1 <0>         0.0000
     12 C7          0.4469    0.1327    0.0000 CT        1 <0>         0.0000
     13 C8          1.1614    0.5452    0.0000 CT        1 <0>         0.0000
     14 C9          1.8759    0.1327    0.0000 CT        1 <0>         0.0000
     15 C10         2.5903    0.5452    0.0000 CT        1 <0>         0.0000
     16 C11         3.3048    0.1327    0.0000 CT        1 <0>         0.0000
     17 C12         4.0193    0.5452    0.0000 CT        1 <0>         0.0000
     18 H1         -0.4070    0.0313    0.0000 H2        1 <0>         0.0000
     19 H2         -0.4070   -0.5909    0.0000 H1        1 <0>         0.0000
     20 H3         -2.4110   -1.2763    0.0000 H1        1 <0>         0.0000
     21 H4         -2.9167   -0.1593    0.0000 H1        1 <0>         0.0000
     22 H5         -1.6965   -1.1048    0.0000 HC        1 <0>         0.0000
     23 H6         -1.6965   -1.1048    0.0000 HC        1 <0>         0.0000
     24 H7         -3.1254    0.5452    0.0000 H1        1 <0>         0.0000
     25 H8         -3.1254    0.5452    0.0000 H1        1 <0>         0.0000
     26 H9         -0.2675   -1.1048    0.0000 HO        1 <0>         0.0000
     27 H10        -3.1254   -1.1048    0.0000 HO        1 <0>         0.0000
     28 H11        -3.1254    1.3702    0.0000 HO        1 <0>         0.0000
     29 H12         0.4469    0.1327    0.0000 H1        1 <0>         0.0000
     30 H13         0.4469    0.1327    0.0000 H1        1 <0>         0.0000
     31 H14         1.1614    0.5452    0.0000 HC        1 <0>         0.0000
     32 H15         1.1614    0.5452    0.0000 HC        1 <0>         0.0000
     33 H16         1.8759    0.1327    0.0000 HC        1 <0>         0.0000
     34 H17         1.8759    0.1327    0.0000 HC        1 <0>         0.0000
     35 H18         2.5903    0.5452    0.0000 HC        1 <0>         0.0000
     36 H19         2.5903    0.5452    0.0000 HC        1 <0>         0.0000
     37 H20         3.3048    0.1327    0.0000 HC        1 <0>         0.0000
     38 H21         3.3048    0.1327    0.0000 HC        1 <0>         0.0000
     39 H22         4.0193    0.5452    0.0000 HC        1 <0>         0.0000
     40 H23         4.0193    0.5452    0.0000 HC        1 <0>         0.0000
     41 H24         4.0193    0.5452    0.0000 HC        1 <0>         0.0000
@<TRIPOS>BOND
     1    1    2 1
     2    1    7 1
     3    1   10 1
     4    1   18 1
     5    2    3 1
     6    2    8 1
     7    2   19 1
     8    3    4 1
     9    4    5 1
    10    4    9 1
    11    4   20 1
    12    5    6 1
    13    5   10 1
    14    5   21 1
    15    6   11 1
    16    7   12 1
    17   12   13 1
    18   13   14 1
    19   14   15 1
    20   15   16 1
    21   16   17 1
    22    3   22 1
    23    3   23 1
    24    6   24 1
    25    6   25 1
    26    8   26 1
    27    9   27 1
    28   11   28 1
    29   12   29 1
    30   12   30 1
    31   13   31 1
    32   13   32 1
    33   14   33 1
    34   14   34 1
    35   15   35 1
    36   15   36 1
    37   16   37 1
    38   16   38 1
    39   17   39 1
    40   17   40 1
    41   17   41 1
@<TRIPOS>MOLECULE
*****
   23    23     0     0     0
SMALL
NO_CHARGES

@<TRIPOS>ATOM
      1 C1          2.1434    1.2375    0.0000 CT        1 <0>         0.0000
      2 C2          1.4289    0.8250    0.0000 CT        1 <0>         0.0000
      3 O1          1.4289    0.0000    0.0000 OS        1 <0>         0.0000
      4 C3          0.7145   -0.4125    0.0000 CT        1 <0>         0.0000
      5 O2          0.7145   -1.2375    0.0000 OH        1 <0>         0.0000
      6 C4          0.0000    0.0000    0.0000 CT        1 <0>         0.0000
      7 O3         -0.7145   -0.4125    0.0000 OH        1 <0>         0.0000
      8 C5          0.0000    0.8250    0.0000 CT        1 <0>         0.0000
      9 O4         -0.7145    1.2375    0.0000 OH        1 <0>         0.0000
     10 C6          0.7145    1.2375    0.0000 CT        1 <0>         0.0000
     11 O5          0.7145    2.0625    0.0000 OH        1 <0>         0.0000
     12 H1          2.1434    1.2375    0.0000 HC        1 <0>         0.0000
     13 H2          2.1434    1.2375    0.0000 HC        1 <0>         0.0000
     14 H3          2.1434    1.2375    0.0000 HC        1 <0>         0.0000
     15 H4          1.4289    0.8250    0.0000 H1        1 <0>         0.0000
     16 H5          0.7145   -0.4125    0.0000 H2        1 <0>         0.0000
     17 H6          0.7145   -1.2375    0.0000 HO        1 <0>         0.0000
     18 H7          0.0000    0.0000    0.0000 H1        1 <0>         0.0000
     19 H8         -0.7145   -0.4125    0.0000 HO        1 <0>         0.0000
     20 H9          0.0000    0.8250    0.0000 H1        1 <0>         0.0000
     21 H10        -0.7145    1.2375    0.0000 HO        1 <0>         0.0000
     22 H11         0.7145    1.2375    0.0000 H1        1 <0>         0.0000
     23 H12         0.7145    2.0625    0.0000 HO        1 <0>         0.0000
@<TRIPOS>BOND
     1    1    2 1
     2    2    3 1
     3    3    4 1
     4    4    5 1
     5    4    6 1
     6    6    7 1
     7    6    8 1
     8    8    9 1
     9    8   10 1
    10    2   10 1
    11   10   11 1
    12    1   12 1
    13    1   13 1
    14    1   14 1
    15    2   15 1
    16    4   16 1
    17    5   17 1
    18    6   18 1
    19    7   19 1
    20    8   20 1
    21    9   21 1
    22   10   22 1
    23   11   23 1
@<TRIPOS>MOLECULE
*****
   11    10     0     0     0
SMALL
NO_CHARGES

@<TRIPOS>ATOM
      1 C1          2.0625   -0.7145    0.0000 CT        1 <0>         0.0000
      2 C2          1.2375   -0.7145    0.0000 CT        1 <0>         0.0000
      3 O1          0.8250   -1.4289    0.0000 OH        1 <0>         0.0000
      4 C3          0.8250    0.0000    0.0000 C         1 <0>         0.0000
      5 O2          0.0000    0.0000    0.0000 O         1 <0>         0.0000
      6 H1          2.0625   -0.7145    0.0000 HC        1 <0>         0.0000
      7 H2          2.0625   -0.7145    0.0000 HC        1 <0>         0.0000
      8 H3          2.0625   -0.7145    0.0000 HC        1 <0>         0.0000
      9 H4          1.2375   -0.7145    0.0000 H1        1 <0>         0.0000
     10 H5          0.8250   -1.4289    0.0000 HO        1 <0>         0.0000
     11 H6          0.8250    0.0000    0.0000 H4        1 <0>         0.0000
@<TRIPOS>BOND
     1    1    2 1
     2    2    3 1
     3    2    4 1
     4    4    5 2
     5    1    6 1
     6    1    7 1
     7    1    8 1
     8    2    9 1
     9    3   10 1
    10    4   11 1
@<TRIPOS>MOLECULE
LVA
   68    69     0     0     0
SMALL
NO_CHARGES

@<TRIPOS>ATOM
      1 O1          3.8942    0.1605    0.0000 OH        1 <0>         0.0000
      2 O2          2.5440   -0.3072    0.0000 OH        1 <0>         0.0000
      3 O3          4.1642    1.5637    0.0000 O         1 <0>         0.0000
      4 O4          1.1938   -0.7750    0.0000 OH        1 <0>         0.0000
      5 O5         -0.4265   -0.4632    0.0000 OS        1 <0>         0.0000
      6 C1         -2.5869    1.4078    0.0000 CM        1 <0>         0.0000
      7 C2         -2.3168    0.6282    0.0000 CM        1 <0>         0.0000
      8 C3          0.9237    0.0046    0.0000 CT        1 <0>         0.0000
      9 C4         -2.0468    2.0314    0.0000 CM        1 <0>         0.0000
     10 C5         -1.5067    0.4723    0.0000 CT        1 <0>         0.0000
     11 C6          3.6242    0.9400    0.0000 C         1 <0>         0.0000
     12 C7         -1.2366    1.8755    0.0000 CT        1 <0>         0.0000
     13 C8         -0.9666    1.0959    0.0000 CT        1 <0>         0.0000
     14 C9          2.2739    0.4723    0.0000 CT        1 <0>         0.0000
     15 C10        -2.8569    0.0046    0.0000 CM        1 <0>         0.0000
     16 C11        -1.2366   -0.3072    0.0000 CT        1 <0>         0.0000
     17 C12         0.1136    0.1605    0.0000 CT        1 <0>         0.0000
     18 C13         1.4638    0.6282    0.0000 CT        1 <0>         0.0000
     19 C14        -0.1565    0.9400    0.0000 CT        1 <0>         0.0000
     20 C15        -1.7767   -0.9309    0.0000 CT        1 <0>         0.0000
     21 C16        -0.6966    2.4991    0.0000 CT        1 <0>         0.0000
     22 C17         2.8140    1.0959    0.0000 CT        1 <0>         0.0000
     23 C18        -2.5869   -0.7750    0.0000 CT        1 <0>         0.0000
     24 C19        -3.1270   -1.3986    0.0000 CT        1 <0>         0.0000
     25 C20        -0.1565   -1.2427    0.0000 C         1 <0>         0.0000
     26 C21         0.6537   -1.3986    0.0000 CT        1 <0>         0.0000
     27 O6         -0.6966   -1.8664    0.0000 O         1 <0>         0.0000
     28 C22         0.9237   -2.1782    0.0000 CT        1 <0>         0.0000
     29 C23         1.4572   -1.2115    0.0000 CT        1 <0>         0.0000
     30 C24         1.7338   -2.3341    0.0000 CT        1 <0>         0.0000
     31 H1          0.5414   -0.4368    0.0000 H1        1 <0>         0.0000
     32 H2         -0.9333    0.3620    0.0000 HC        1 <0>         0.0000
     33 H3         -1.4278    2.4273    0.0000 HC        1 <0>         0.0000
     34 H4         -0.5983    0.6428    0.0000 HC        1 <0>         0.0000
     35 H5          1.8917    0.0309    0.0000 H1        1 <0>         0.0000
     36 H6         -0.7265   -0.0232    0.0000 H1        1 <0>         0.0000
     37 H7         -3.1603   -0.6646    0.0000 HC        1 <0>         0.0000
     38 H8          0.2714   -1.8400    0.0000 HC        1 <0>         0.0000
     39 H9          3.8942    0.1605    0.0000 HO        1 <0>         0.0000
     40 H10         2.5440   -0.3072    0.0000 HO        1 <0>         0.0000
     41 H11         1.1938   -0.7750    0.0000 HO        1 <0>         0.0000
     42 H12        -2.5869    1.4078    0.0000 HA        1 <0>         0.0000
     43 H13        -2.0468    2.0314    0.0000 HA        1 <0>         0.0000
     44 H14        -2.8569    0.0046    0.0000 HA        1 <0>         0.0000
     45 H15         0.1136    0.1605    0.0000 HC        1 <0>         0.0000
     46 H16         0.1136    0.1605    0.0000 HC        1 <0>         0.0000
     47 H17         1.4638    0.6282    0.0000 HC        1 <0>         0.0000
     48 H18         1.4638    0.6282    0.0000 HC        1 <0>         0.0000
     49 H19        -0.1565    0.9400    0.0000 HC        1 <0>         0.0000
     50 H20        -0.1565    0.9400    0.0000 HC        1 <0>         0.0000
     51 H21        -1.7767   -0.9309    0.0000 HC        1 <0>         0.0000
     52 H22        -1.7767   -0.9309    0.0000 HC        1 <0>         0.0000
     53 H23        -0.6966    2.4991    0.0000 HC        1 <0>         0.0000
     54 H24        -0.6966    2.4991    0.0000 HC        1 <0>         0.0000
     55 H25        -0.6966    2.4991    0.0000 HC        1 <0>         0.0000
     56 H26         2.8140    1.0959    0.0000 HC        1 <0>         0.0000
     57 H27         2.8140    1.0959    0.0000 HC        1 <0>         0.0000
     58 H28        -3.1270   -1.3986    0.0000 HC        1 <0>         0.0000
     59 H29        -3.1270   -1.3986    0.0000 HC        1 <0>         0.0000
     60 H30        -3.1270   -1.3986    0.0000 HC        1 <0>         0.0000
     61 H31         0.9237   -2.1782    0.0000 HC        1 <0>         0.0000
     62 H32         0.9237   -2.1782    0.0000 HC        1 <0>         0.0000
     63 H33         1.4572   -1.2115    0.0000 HC        1 <0>         0.0000
     64 H34         1.4572   -1.2115    0.0000 HC        1 <0>         0.0000
     65 H35         1.4572   -1.2115    0.0000 HC        1 <0>         0.0000
     66 H36         1.7338   -2.3341    0.0000 HC        1 <0>         0.0000
     67 H37         1.7338   -2.3341    0.0000 HC        1 <0>         0.0000
     68 H38         1.7338   -2.3341    0.0000 HC        1 <0>         0.0000
@<TRIPOS>BOND
     1    1   11 1
     2    2   14 1
     3    3   11 2
     4    4    8 1
     5    5   16 1
     6    5   25 1
     7    6    7 1
     8    6    9 2
     9    7   10 1
    10    7   15 2
    11    8   17 1
    12    8   18 1
    13    8   31 1
    14    9   12 1
    15   10   13 1
    16   10   16 1
    17   10   32 1
    18   11   22 1
    19   12   13 1
    20   12   21 1
    21   12   33 1
    22   13   19 1
    23   13   34 1
    24   14   18 1
    25   14   22 1
    26   14   35 1
    27   15   23 1
    28   16   20 1
    29   16   36 1
    30   17   19 1
    31   20   23 1
    32   23   24 1
    33   23   37 1
    34   25   26 1
    35   25   27 2
    36   26   28 1
    37   26   29 1
    38   26   38 1
    39   28   30 1
    40    1   39 1
    41    2   40 1
    42    4   41 1
    43    6   42 1
    44    9   43 1
    45   15   44 1
    46   17   45 1
    47   17   46 1
    48   18   47 1
    49   18   48 1
    50   19   49 1
    51   19   50 1
    52   20   51 1
    53   20   52 1
    54   21   53 1
    55   21   54 1
    56   21   55 1
    57   22   56 1
    58   22   57 1
    59   24   58 1
    60   24   59 1
    61   24   60 1
    62   28   61 1
    63   28   62 1
    64   29   63 1
    65   29   64 1
    66   29   65 1
    67   30   66 1
    68   30   67 1
    69   30   68 1
@<TRIPOS>MOLECULE
*****
   52    54     0     0     0
SMALL
NO_CHARGES

@<TRIPOS>ATOM
      1 C1         -2.1434   -2.8875    0.0000 CT        1 <0>         0.0000
      2 C2         -2.1434   -3.7125    0.0000 CA        1 <0>         0.0000
      3 C3         -1.4289   -4.1250    0.0000 CA        1 <0>         0.0000
      4 C4         -1.4289   -4.9500    0.0000 CA        1 <0>         0.0000
      5 O1         -0.7145   -5.3625    0.0000 OS        1 <0>         0.0000
      6 C5         -0.7145   -6.1875    0.0000 CT        1 <0>         0.0000
      7 C6          0.0000   -6.6000    0.0000 C         1 <0>         0.0000
      8 O2          0.0000   -7.4250    0.0000 OH        1 <0>         0.0000
      9 O3          0.7145   -6.1875    0.0000 O         1 <0>         0.0000
     10 C7         -2.1434   -5.3625    0.0000 CA        1 <0>         0.0000
     11 C8         -2.8579   -4.9500    0.0000 CA        1 <0>         0.0000
     12 C9         -3.5724   -5.3625    0.0000 CT        1 <0>         0.0000
     13 C10        -2.8579   -4.1250    0.0000 CA        1 <0>         0.0000
     14 C11        -3.5724   -3.7125    0.0000 CT        1 <0>         0.0000
     15 C12        -4.2868   -4.1250    0.0000 CA        1 <0>         0.0000
     16 C13        -4.2868   -4.9500    0.0000 CA        1 <0>         0.0000
     17 C14        -5.0013   -5.3625    0.0000 CA        1 <0>         0.0000
     18 C15        -5.7158   -4.9500    0.0000 CA        1 <0>         0.0000
     19 O4         -6.4302   -5.3625    0.0000 OH        1 <0>         0.0000
     20 C16        -5.7158   -4.1250    0.0000 CA        1 <0>         0.0000
     21 C17        -6.4302   -3.7125    0.0000 CT        1 <0>         0.0000
     22 C18        -7.1447   -4.1250    0.0000 CA        1 <0>         0.0000
     23 C19        -7.1447   -4.9500    0.0000 CA        1 <0>         0.0000
     24 C20        -7.8592   -5.3625    0.0000 CA        1 <0>         0.0000
     25 C21        -8.5737   -4.9500    0.0000 CA        1 <0>         0.0000
     26 C22        -8.5737   -4.1250    0.0000 CA        1 <0>         0.0000
     27 C23        -7.8592   -3.7125    0.0000 CA        1 <0>         0.0000
     28 C24        -5.0013   -3.7125    0.0000 CA        1 <0>         0.0000
     29 H1         -2.1434   -2.8875    0.0000 HC        1 <0>         0.0000
     30 H2         -2.1434   -2.8875    0.0000 HC        1 <0>         0.0000
     31 H3         -2.1434   -2.8875    0.0000 HC        1 <0>         0.0000
     32 H4         -1.4289   -4.1250    0.0000 HA        1 <0>         0.0000
     33 H5         -0.7145   -6.1875    0.0000 H1        1 <0>         0.0000
     34 H6         -0.7145   -6.1875    0.0000 H1        1 <0>         0.0000
     35 H7          0.0000   -7.4250    0.0000 HO        1 <0>         0.0000
     36 H8         -2.1434   -5.3625    0.0000 HA        1 <0>         0.0000
     37 H9         -3.5724   -5.3625    0.0000 HC        1 <0>         0.0000
     38 H10        -3.5724   -5.3625    0.0000 HC        1 <0>         0.0000
     39 H11        -3.5724   -5.3625    0.0000 HC        1 <0>         0.0000
     40 H12        -3.5724   -3.7125    0.0000 HC        1 <0>         0.0000
     41 H13        -3.5724   -3.7125    0.0000 HC        1 <0>         0.0000
     42 H14        -4.2868   -4.9500    0.0000 HA        1 <0>         0.0000
     43 H15        -5.0013   -5.3625    0.0000 HA        1 <0>         0.0000
     44 H16        -6.4302   -5.3625    0.0000 HO        1 <0>         0.0000
     45 H17        -6.4302   -3.7125    0.0000 HC        1 <0>         0.0000
     46 H18        -6.4302   -3.7125    0.0000 HC        1 <0>         0.0000
     47 H19        -7.1447   -4.9500    0.0000 HA        1 <0>         0.0000
     48 H20        -7.8592   -5.3625    0.0000 HA        1 <0>         0.0000
     49 H21        -8.5737   -4.9500    0.0000 HA        1 <0>         0.0000
     50 H22        -8.5737   -4.1250    0.0000 HA        1 <0>         0.0000
     51 H23        -7.8592   -3.7125    0.0000 HA        1 <0>         0.0000
     52 H24        -5.0013   -3.7125    0.0000 HA        1 <0>         0.0000
@<TRIPOS>BOND
     1    1    2 1
     2    2    3 ar
     3    3    4 ar
     4    4    5 1
     5    5    6 1
     6    6    7 1
     7    7    8 1
     8    7    9 2
     9    4   10 ar
    10   10   11 ar
    11   11   12 1
    12   11   13 ar
    13    2   13 ar
    14   13   14 1
    15   14   15 1
    16   15   16 ar
    17   16   17 ar
    18   17   18 ar
    19   18   19 1
    20   18   20 ar
    21   20   21 1
    22   21   22 1
    23   22   23 ar
    24   23   24 ar
    25   24   25 ar
    26   25   26 ar
    27   26   27 ar
    28   22   27 ar
    29   20   28 ar
    30   15   28 ar
    31    1   29 1
    32    1   30 1
    33    1   31 1
    34    3   32 1
    35    6   33 1
    36    6   34 1
    37    8   35 1
    38   10   36 1
    39   12   37 1
    40   12   38 1
    41   12   39 1
    42   14   40 1
    43   14   41 1
    44   16   42 1
    45   17   43 1
    46   19   44 1
    47   21   45 1
    48   21   46 1
    49   23   47 1
    50   24   48 1
    51   25   49 1
    52   26   50 1
    53   27   51 1
    54   28   52 1
@<TRIPOS>MOLECULE
Benzoic acid
   15    15     0     0     0
SMALL
NO_CHARGES

@<TRIPOS>ATOM
      1 O1          0.0000    2.4750    0.0000 OH        1 <0>         0.0000
      2 C1          0.7145    2.0625    0.0000 C         1 <0>         0.0000
      3 O2          1.4289    2.4750    0.0000 O         1 <0>         0.0000
      4 C2          0.7145    1.2375    0.0000 CA        1 <0>         0.0000
      5 C3          1.4289    0.8250    0.0000 CA        1 <0>         0.0000
      6 C4          1.4289    0.0000    0.0000 CA        1 <0>         0.0000
      7 C5          0.7145   -0.4125    0.0000 CA        1 <0>         0.0000
      8 C6          0.0000    0.0000    0.0000 CA        1 <0>         0.0000
      9 C7          0.0000    0.8250    0.0000 CA        1 <0>         0.0000
     10 H1          0.0000    2.4750    0.0000 HO        1 <0>         0.0000
     11 H2          1.4289    0.8250    0.0000 HA        1 <0>         0.0000
     12 H3          1.4289    0.0000    0.0000 HA        1 <0>         0.0000
     13 H4          0.7145   -0.4125    0.0000 HA        1 <0>         0.0000
     14 H5          0.0000    0.0000    0.0000 HA        1 <0>         0.0000
     15 H6          0.0000    0.8250    0.0000 HA        1 <0>         0.0000
@<TRIPOS>BOND
     1    1    2 1
     2    2    3 2
     3    2    4 1
     4    4    5 ar
     5    5    6 ar
     6    6    7 ar
     7    7    8 ar
     8    8    9 ar
     9    4    9 ar
    10    1   10 1
    11    5   11 1
    12    6   12 1
    13    7   13 1
    14    8   14 1
    15    9   15 1
@<TRIPOS>MOLECULE
*****
   20    19     0     0     0
SMALL
NO_CHARGES

@<TRIPOS>ATOM
      1 C1          1.6500    0.0000    0.0000 CT        1 <0>         0.0000
      2 C2          1.2375    0.7145    0.0000 CT        1 <0>         0.0000
      3 C3          0.8250    1.4289    0.0000 CT        1 <0>         0.0000
      4 C4          0.5230    0.3020    0.0000 CT        1 <0>         0.0000
      5 O1         -0.1914    0.7145    0.0000 OH        1 <0>         0.0000
      6 C5          1.9520    1.1270    0.0000 C         1 <0>         0.0000
      7 O2          1.9520    1.9520    0.0000 O         1 <0>         0.0000
      8 C6          2.6664    0.7145    0.0000 C         1 <0>         0.0000
      9 O3          3.3809    1.1270    0.0000 OH        1 <0>         0.0000
     10 O4          2.6664   -0.1105    0.0000 O         1 <0>         0.0000
     11 H1          1.6500    0.0000    0.0000 HC        1 <0>         0.0000
     12 H2          1.6500    0.0000    0.0000 HC        1 <0>         0.0000
     13 H3          1.6500    0.0000    0.0000 HC        1 <0>         0.0000
     14 H4          0.8250    1.4289    0.0000 HC        1 <0>         0.0000
     15 H5          0.8250    1.4289    0.0000 HC        1 <0>         0.0000
     16 H6          0.8250    1.4289    0.0000 HC        1 <0>         0.0000
     17 H7          0.5230    0.3020    0.0000 H1        1 <0>         0.0000
     18 H8          0.5230    0.3020    0.0000 H1        1 <0>         0.0000
     19 H9         -0.1914    0.7145    0.0000 HO        1 <0>         0.0000
     20 H10         3.3809    1.1270    0.0000 HO        1 <0>         0.0000
@<TRIPOS>BOND
     1    1    2 1
     2    2    3 1
     3    2    4 1
     4    4    5 1
     5    2    6 1
     6    6    7 2
     7    6    8 1
     8    8    9 1
     9    8   10 2
    10    1   11 1
    11    1   12 1
    12    1   13 1
    13    3   14 1
    14    3   15 1
    15    3   16 1
    16    4   17 1
    17    4   18 1
    18    5   19 1
    19    9   20 1
@<TRIPOS>MOLECULE
*****
   50    49     0     0     0
SMALL
NO_CHARGES

@<TRIPOS>ATOM
      1 C1          7.9480    5.4138    0.0000 CT        1 <0>         0.0000
      2 C2          8.6625    5.0013    0.0000 CT        1 <0>         0.0000
      3 C3          9.3770    5.4138    0.0000 CT        1 <0>         0.0000
      4 C4         10.0914    5.0013    0.0000 CT        1 <0>         0.0000
      5 C5         10.8059    5.4138    0.0000 CT        1 <0>         0.0000
      6 C6         11.5204    5.0013    0.0000 CT        1 <0>         0.0000
      7 C7         12.2349    5.4138    0.0000 CT        1 <0>         0.0000
      8 C8         12.9493    5.0013    0.0000 CT        1 <0>         0.0000
      9 C9         13.6638    5.4138    0.0000 CT        1 <0>         0.0000
     10 C10        14.3783    5.0013    0.0000 CT        1 <0>         0.0000
     11 C11        15.0927    5.4138    0.0000 CT        1 <0>         0.0000
     12 C12        15.8072    5.0013    0.0000 CT        1 <0>         0.0000
     13 C13        16.5217    5.4138    0.0000 CT        1 <0>         0.0000
     14 C14        17.2362    5.0013    0.0000 CT        1 <0>         0.0000
     15 C15        17.9506    5.4138    0.0000 CT        1 <0>         0.0000
     16 C16        18.6651    5.0013    0.0000 C         1 <0>         0.0000
     17 O1         19.3796    5.4138    0.0000 OH        1 <0>         0.0000
     18 O2         18.6651    4.1763    0.0000 O         1 <0>         0.0000
     19 H1          7.9480    5.4138    0.0000 HC        1 <0>         0.0000
     20 H2          7.9480    5.4138    0.0000 HC        1 <0>         0.0000
     21 H3          7.9480    5.4138    0.0000 HC        1 <0>         0.0000
     22 H4          8.6625    5.0013    0.0000 HC        1 <0>         0.0000
     23 H5          8.6625    5.0013    0.0000 HC        1 <0>         0.0000
     24 H6          9.3770    5.4138    0.0000 HC        1 <0>         0.0000
     25 H7          9.3770    5.4138    0.0000 HC        1 <0>         0.0000
     26 H8         10.0914    5.0013    0.0000 HC        1 <0>         0.0000
     27 H9         10.0914    5.0013    0.0000 HC        1 <0>         0.0000
     28 H10        10.8059    5.4138    0.0000 HC        1 <0>         0.0000
     29 H11        10.8059    5.4138    0.0000 HC        1 <0>         0.0000
     30 H12        11.5204    5.0013    0.0000 HC        1 <0>         0.0000
     31 H13        11.5204    5.0013    0.0000 HC        1 <0>         0.0000
     32 H14        12.2349    5.4138    0.0000 HC        1 <0>         0.0000
     33 H15        12.2349    5.4138    0.0000 HC        1 <0>         0.0000
     34 H16        12.9493    5.0013    0.0000 HC        1 <0>         0.0000
     35 H17        12.9493    5.0013    0.0000 HC        1 <0>         0.0000
     36 H18        13.6638    5.4138    0.0000 HC        1 <0>         0.0000
     37 H19        13.6638    5.4138    0.0000 HC        1 <0>         0.0000
     38 H20        14.3783    5.0013    0.0000 HC        1 <0>         0.0000
     39 H21        14.3783    5.0013    0.0000 HC        1 <0>         0.0000
     40 H22        15.0927    5.4138    0.0000 HC        1 <0>         0.0000
     41 H23        15.0927    5.4138    0.0000 HC        1 <0>         0.0000
     42 H24        15.8072    5.0013    0.0000 HC        1 <0>         0.0000
     43 H25        15.8072    5.0013    0.0000 HC        1 <0>         0.0000
     44 H26        16.5217    5.4138    0.0000 HC        1 <0>         0.0000
     45 H27        16.5217    5.4138    0.0000 HC        1 <0>         0.0000
     46 H28        17.2362    5.0013    0.0000 HC        1 <0>         0.0000
     47 H29        17.2362    5.0013    0.0000 HC        1 <0>         0.0000
     48 H30        17.9506    5.4138    0.0000 HC        1 <0>         0.0000
     49 H31        17.9506    5.4138    0.0000 HC        1 <0>         0.0000
     50 H32        19.3796    5.4138    0.0000 HO        1 <0>         0.0000
@<TRIPOS>BOND
     1    1    2 1
     2    2    3 1
     3    3    4 1
     4    4    5 1
     5    5    6 1
     6    6    7 1
     7    7    8 1
     8    8    9 1
     9    9   10 1
    10   10   11 1
    11   11   12 1
    12   12   13 1
    13   13   14 1
    14   14   15 1
    15   15   16 1
    16   16   17 1
    17   16   18 2
    18    1   19 1
    19    1   20 1
    20    1   21 1
    21    2   22 1
    22    2   23 1
    23    3   24 1
    24    3   25 1
    25    4   26 1
    26    4   27 1
    27    5   28 1
    28    5   29 1
    29    6   30 1
    30    6   31 1
    31    7   32 1
    32    7   33 1
    33    8   34 1
    34    8   35 1
    35    9   36 1
    36    9   37 1
    37   10   38 1
    38   10   39 1
    39   11   40 1
    40   11   41 1
    41   12   42 1
    42   12   43 1
    43   13   44 1
    44   13   45 1
    45   14   46 1
    46   14   47 1
    47   15   48 1
    48   15   49 1
    49   17   50 1
@<TRIPOS>MOLECULE
*****
   36    38     0     0     0
SMALL
NO_CHARGES

@<TRIPOS>ATOM
      1 C1          2.5012    1.2560    0.0000 CA        1 <0>         0.0000
      2 C2          1.7861    1.6685    0.0000 CA        1 <0>         0.0000
      3 C3          1.0711    1.2560    0.0000 CA        1 <0>         0.0000
      4 C4          1.7861    0.0185    0.0000 CA        1 <0>         0.0000
      5 C5          2.5012    0.4310    0.0000 CA        1 <0>         0.0000
      6 C6          0.3575   -0.8064    0.0000 CT        1 <0>         0.0000
      7 C7          0.3575    0.0185    0.0000 CT        1 <0>         0.0000
      8 O1         -0.3573    0.4310    0.0000 OS        1 <0>         0.0000
      9 C8         -0.3573   -1.2189    0.0000 CT        1 <0>         0.0000
     10 C9         -1.0711   -0.8064    0.0000 CA        1 <0>         0.0000
     11 C10        -1.0711    0.0185    0.0000 CA        1 <0>         0.0000
     12 C11        -1.7861    0.4310    0.0000 CA        1 <0>         0.0000
     13 C12        -2.5012    0.0171    0.0000 CA        1 <0>         0.0000
     14 C13        -2.5012   -0.8078    0.0000 CA        1 <0>         0.0000
     15 C14        -1.7861   -1.2189    0.0000 CA        1 <0>         0.0000
     16 O2         -1.7855   -2.0439    0.0000 OH        1 <0>         0.0000
     17 O3         -3.2159    0.4293    0.0000 OH        1 <0>         0.0000
     18 O4          1.0719   -1.2189    0.0000 OH        1 <0>         0.0000
     19 O5          1.7861    2.4935    0.0000 OH        1 <0>         0.0000
     20 O6          3.2156    1.6687    0.0000 OH        1 <0>         0.0000
     21 O7          3.2156    0.0184    0.0000 OH        1 <0>         0.0000
     22 C15         1.0719    0.4311    0.0000 CA        1 <0>         0.0000
     23 H1          1.0711    1.2560    0.0000 HA        1 <0>         0.0000
     24 H2          1.7861    0.0185    0.0000 HA        1 <0>         0.0000
     25 H3          0.3575   -0.8064    0.0000 H1        1 <0>         0.0000
     26 H4          0.3575    0.0185    0.0000 H1        1 <0>         0.0000
     27 H5         -0.3573   -1.2189    0.0000 HC        1 <0>         0.0000
     28 H6         -0.3573   -1.2189    0.0000 HC        1 <0>         0.0000
     29 H7         -1.7861    0.4310    0.0000 HA        1 <0>         0.0000
     30 H8         -2.5012   -0.8078    0.0000 HA        1 <0>         0.0000
     31 H9         -1.7855   -2.0439    0.0000 HO        1 <0>         0.0000
     32 H10        -3.2159    0.4293    0.0000 HO        1 <0>         0.0000
     33 H11         1.0719   -1.2189    0.0000 HO        1 <0>         0.0000
     34 H12         1.7861    2.4935    0.0000 HO        1 <0>         0.0000
     35 H13         3.2156    1.6687    0.0000 HO        1 <0>         0.0000
     36 H14         3.2156    0.0184    0.0000 HO        1 <0>         0.0000
@<TRIPOS>BOND
     1    1    2 ar
     2    1    5 ar
     3    2    3 ar
     4    3   22 ar
     5    4   22 ar
     6    4    5 ar
     7    6    7 1
     8    6    9 1
     9    7    8 1
    10    8   11 1
    11    9   10 1
    12   10   11 ar
    13   10   15 ar
    14   11   12 ar
    15   12   13 ar
    16   13   14 ar
    17   14   15 ar
    18   15   16 1
    19   13   17 1
    20    6   18 1
    21    2   19 1
    22    1   20 1
    23    5   21 1
    24    7   22 1
    25    3   23 1
    26    4   24 1
    27    6   25 1
    28    7   26 1
    29    9   27 1
    30    9   28 1
    31   12   29 1
    32   14   30 1
    33   16   31 1
    34   17   32 1
    35   18   33 1
    36   19   34 1
    37   20   35 1
    38   21   36 1
@<TRIPOS>MOLECULE
*****
   65    64     0     0     0
SMALL
NO_CHARGES

@<TRIPOS>ATOM
      1 C1         -1.6717    3.9849    0.0000 CT        1 <0>         0.0000
      2 C2         -0.9572    3.5724    0.0000 CT        1 <0>         0.0000
      3 C3         -0.2427    3.9849    0.0000 CT        1 <0>         0.0000
      4 C4          0.4717    3.5724    0.0000 CT        1 <0>         0.0000
      5 C5          1.1862    3.9849    0.0000 CT        1 <0>         0.0000
      6 C6          1.9007    3.5724    0.0000 CT        1 <0>         0.0000
      7 C7          2.6151    3.9849    0.0000 CT        1 <0>         0.0000
      8 C8          3.3296    3.5724    0.0000 CT        1 <0>         0.0000
      9 C9          4.0441    3.9849    0.0000 CM        1 <0>         0.0000
     10 C10         4.7586    3.5724    0.0000 CM        1 <0>         0.0000
     11 C11         5.4730    3.9849    0.0000 CT        1 <0>         0.0000
     12 C12         6.1875    3.5724    0.0000 CT        1 <0>         0.0000
     13 C13         6.9020    3.9849    0.0000 CT        1 <0>         0.0000
     14 C14         7.6164    3.5724    0.0000 CT        1 <0>         0.0000
     15 C15         8.3309    3.9849    0.0000 CT        1 <0>         0.0000
     16 C16         9.0454    3.5724    0.0000 CT        1 <0>         0.0000
     17 C17         9.7599    3.9849    0.0000 CT        1 <0>         0.0000
     18 C18        10.4743    3.5724    0.0000 CT        1 <0>         0.0000
     19 O1         11.1888    3.9849    0.0000 OS        1 <0>         0.0000
     20 C19        11.9033    3.5724    0.0000 C         1 <0>         0.0000
     21 O2         11.9033    2.7474    0.0000 O         1 <0>         0.0000
     22 C20        12.6177    3.9849    0.0000 CT        1 <0>         0.0000
     23 O3         12.6177    4.8099    0.0000 OH        1 <0>         0.0000
     24 C21        13.3322    3.5724    0.0000 CT        1 <0>         0.0000
     25 O4         14.0467    3.9849    0.0000 OH        1 <0>         0.0000
     26 H1         -1.6717    3.9849    0.0000 HC        1 <0>         0.0000
     27 H2         -1.6717    3.9849    0.0000 HC        1 <0>         0.0000
     28 H3         -1.6717    3.9849    0.0000 HC        1 <0>         0.0000
     29 H4         -0.9572    3.5724    0.0000 HC        1 <0>         0.0000
     30 H5         -0.9572    3.5724    0.0000 HC        1 <0>         0.0000
     31 H6         -0.2427    3.9849    0.0000 HC        1 <0>         0.0000
     32 H7         -0.2427    3.9849    0.0000 HC        1 <0>         0.0000
     33 H8          0.4717    3.5724    0.0000 HC        1 <0>         0.0000
     34 H9          0.4717    3.5724    0.0000 HC        1 <0>         0.0000
     35 H10         1.1862    3.9849    0.0000 HC        1 <0>         0.0000
     36 H11         1.1862    3.9849    0.0000 HC        1 <0>         0.0000
     37 H12         1.9007    3.5724    0.0000 HC        1 <0>         0.0000
     38 H13         1.9007    3.5724    0.0000 HC        1 <0>         0.0000
     39 H14         2.6151    3.9849    0.0000 HC        1 <0>         0.0000
     40 H15         2.6151    3.9849    0.0000 HC        1 <0>         0.0000
     41 H16         3.3296    3.5724    0.0000 HC        1 <0>         0.0000
     42 H17         3.3296    3.5724    0.0000 HC        1 <0>         0.0000
     43 H18         4.0441    3.9849    0.0000 HA        1 <0>         0.0000
     44 H19         4.7586    3.5724    0.0000 HA        1 <0>         0.0000
     45 H20         5.4730    3.9849    0.0000 HC        1 <0>         0.0000
     46 H21         5.4730    3.9849    0.0000 HC        1 <0>         0.0000
     47 H22         6.1875    3.5724    0.0000 HC        1 <0>         0.0000
     48 H23         6.1875    3.5724    0.0000 HC        1 <0>         0.0000
     49 H24         6.9020    3.9849    0.0000 HC        1 <0>         0.0000
     50 H25         6.9020    3.9849    0.0000 HC        1 <0>         0.0000
     51 H26         7.6164    3.5724    0.0000 HC        1 <0>         0.0000
     52 H27         7.6164    3.5724    0.0000 HC        1 <0>         0.0000
     53 H28         8.3309    3.9849    0.0000 HC        1 <0>         0.0000
     54 H29         8.3309    3.9849    0.0000 HC        1 <0>         0.0000
     55 H30         9.0454    3.5724    0.0000 HC        1 <0>         0.0000
     56 H31         9.0454    3.5724    0.0000 HC        1 <0>         0.0000
     57 H32         9.7599    3.9849    0.0000 HC        1 <0>         0.0000
     58 H33         9.7599    3.9849    0.0000 HC        1 <0>         0.0000
     59 H34        10.4743    3.5724    0.0000 H1        1 <0>         0.0000
     60 H35        10.4743    3.5724    0.0000 H1        1 <0>         0.0000
     61 H36        12.6177    3.9849    0.0000 H1        1 <0>         0.0000
     62 H37        12.6177    4.8099    0.0000 HO        1 <0>         0.0000
     63 H38        13.3322    3.5724    0.0000 H1        1 <0>         0.0000
     64 H39        13.3322    3.5724    0.0000 H1        1 <0>         0.0000
     65 H40        14.0467    3.9849    0.0000 HO        1 <0>         0.0000
@<TRIPOS>BOND
     1    1    2 1
     2    2    3 1
     3    3    4 1
     4    4    5 1
     5    5    6 1
     6    6    7 1
     7    7    8 1
     8    8    9 1
     9    9   10 2
    10   10   11 1
    11   11   12 1
    12   12   13 1
    13   13   14 1
    14   14   15 1
    15   15   16 1
    16   16   17 1
    17   17   18 1
    18   18   19 1
    19   19   20 1
    20   20   21 2
    21   20   22 1
    22   22   23 1
    23   22   24 1
    24   24   25 1
    25    1   26 1
    26    1   27 1
    27    1   28 1
    28    2   29 1
    29    2   30 1
    30    3   31 1
    31    3   32 1
    32    4   33 1
    33    4   34 1
    34    5   35 1
    35    5   36 1
    36    6   37 1
    37    6   38 1
    38    7   39 1
    39    7   40 1
    40    8   41 1
    41    8   42 1
    42    9   43 1
    43   10   44 1
    44   11   45 1
    45   11   46 1
    46   12   47 1
    47   12   48 1
    48   13   49 1
    49   13   50 1
    50   14   51 1
    51   14   52 1
    52   15   53 1
    53   15   54 1
    54   16   55 1
    55   16   56 1
    56   17   57 1
    57   17   58 1
    58   18   59 1
    59   18   60 1
    60   22   61 1
    61   23   62 1
    62   24   63 1
    63   24   64 1
    64   25   65 1
@<TRIPOS>MOLECULE
*****
    4     3     0     0     0
SMALL
NO_CHARGES

@<TRIPOS>ATOM
      1 C1          0.8250    0.0000    0.0000 C         1 <0>         0.0000
      2 O1          0.0000    0.0000    0.0000 O         1 <0>         0.0000
      3 H1          0.8250    0.0000    0.0000 H4        1 <0>         0.0000
      4 H2          0.8250    0.0000    0.0000 H4        1 <0>         0.0000
@<TRIPOS>BOND
     1    1    2 2
     2    1    3 1
     3    1    4 1
@<TRIPOS>MOLECULE
[NO NAME]
   29    30     0     0     0
SMALL
NO_CHARGES

Created with ChemWriter - http://chemwriter.com
@<TRIPOS>ATOM
      1 C1         -0.7145    0.4125    0.0000 CT        1 <0>         0.0000
      2 C2         -0.7145   -0.4125    0.0000 CT        1 <0>         0.0000
      3 O1          0.7145    0.4125    0.0000 OS        1 <0>         0.0000
      4 C3          1.5395   -0.4125    0.0000 CT        1 <0>         0.0000
      5 C4          0.7145   -0.4125    0.0000 CT        1 <0>         0.0000
      6 C5          1.1270   -1.1270    0.0000 CT        1 <0>         0.0000
      7 C6          0.0000    0.8250    0.0000 CT        1 <0>         0.0000
      8 C7          0.0000    1.6500    0.0000 CT        1 <0>         0.0000
      9 C8          0.0000   -0.8250    0.0000 CT        1 <0>         0.0000
     10 C9         -0.3000    0.3000    0.0000 CT        1 <0>         0.0000
     11 C10        -0.3000   -0.3000    0.0000 CT        1 <0>         0.0000
     12 H1         -0.7145    0.4125    0.0000 HC        1 <0>         0.0000
     13 H2         -0.7145    0.4125    0.0000 HC        1 <0>         0.0000
     14 H3         -0.7145   -0.4125    0.0000 HC        1 <0>         0.0000
     15 H4         -0.7145   -0.4125    0.0000 HC        1 <0>         0.0000
     16 H5          1.5395   -0.4125    0.0000 HC        1 <0>         0.0000
     17 H6          1.5395   -0.4125    0.0000 HC        1 <0>         0.0000
     18 H7          1.5395   -0.4125    0.0000 HC        1 <0>         0.0000
     19 H8          1.1270   -1.1270    0.0000 HC        1 <0>         0.0000
     20 H9          1.1270   -1.1270    0.0000 HC        1 <0>         0.0000
     21 H10         1.1270   -1.1270    0.0000 HC        1 <0>         0.0000
     22 H11         0.0000    1.6500    0.0000 HC        1 <0>         0.0000
     23 H12         0.0000    1.6500    0.0000 HC        1 <0>         0.0000
     24 H13         0.0000    1.6500    0.0000 HC        1 <0>         0.0000
     25 H14         0.0000   -0.8250    0.0000 HC        1 <0>         0.0000
     26 H15        -0.3000    0.3000    0.0000 HC        1 <0>         0.0000
     27 H16        -0.3000    0.3000    0.0000 HC        1 <0>         0.0000
     28 H17        -0.3000   -0.3000    0.0000 HC        1 <0>         0.0000
     29 H18        -0.3000   -0.3000    0.0000 HC        1 <0>         0.0000
@<TRIPOS>BOND
     1    5    9 1
     2    2    9 1
     3    3    5 1
     4    3    7 1
     5    1    7 1
     6    1    2 1
     7    7   10 1
     8    9   11 1
     9   10   11 1
    10    4    5 1
    11    5    6 1
    12    7    8 1
    13    1   12 1
    14    1   13 1
    15    2   14 1
    16    2   15 1
    17    4   16 1
    18    4   17 1
    19    4   18 1
    20    6   19 1
    21    6   20 1
    22    6   21 1
    23    8   22 1
    24    8   23 1
    25    8   24 1
    26    9   25 1
    27   10   26 1
    28   10   27 1
    29   11   28 1
    30   11   29 1
@<TRIPOS>MOLECULE
*****
   26    26     0     0     0
SMALL
NO_CHARGES

@<TRIPOS>ATOM
      1 C1          2.1434    2.0625    0.0000 CT        1 <0>         0.0000
      2 O1          2.1434    1.2375    0.0000 OS        1 <0>         0.0000
      3 C2          1.4289    0.8250    0.0000 CT        1 <0>         0.0000
      4 C3          1.4289    0.0000    0.0000 CT        1 <0>         0.0000
      5 O2          2.1434   -0.4125    0.0000 OH        1 <0>         0.0000
      6 O3          0.7145   -0.4125    0.0000 OS        1 <0>         0.0000
      7 C4          0.0000    0.0000    0.0000 CT        1 <0>         0.0000
      8 C5         -0.7145   -0.4125    0.0000 CT        1 <0>         0.0000
      9 C6          0.0000    0.8250    0.0000 CT        1 <0>         0.0000
     10 O4         -0.7145    1.2375    0.0000 OH        1 <0>         0.0000
     11 C7          0.7145    1.2375    0.0000 CT        1 <0>         0.0000
     12 O5          0.7145    2.0625    0.0000 OH        1 <0>         0.0000
     13 H1          2.1434    2.0625    0.0000 H1        1 <0>         0.0000
     14 H2          2.1434    2.0625    0.0000 H1        1 <0>         0.0000
     15 H3          2.1434    2.0625    0.0000 H1        1 <0>         0.0000
     16 H4          1.4289    0.8250    0.0000 H1        1 <0>         0.0000
     17 H5          1.4289    0.0000    0.0000 H2        1 <0>         0.0000
     18 H6          2.1434   -0.4125    0.0000 HO        1 <0>         0.0000
     19 H7          0.0000    0.0000    0.0000 H1        1 <0>         0.0000
     20 H8         -0.7145   -0.4125    0.0000 HC        1 <0>         0.0000
     21 H9         -0.7145   -0.4125    0.0000 HC        1 <0>         0.0000
     22 H10        -0.7145   -0.4125    0.0000 HC        1 <0>         0.0000
     23 H11         0.0000    0.8250    0.0000 H1        1 <0>         0.0000
     24 H12        -0.7145    1.2375    0.0000 HO        1 <0>         0.0000
     25 H13         0.7145    1.2375    0.0000 H1        1 <0>         0.0000
     26 H14         0.7145    2.0625    0.0000 HO        1 <0>         0.0000
@<TRIPOS>BOND
     1    1    2 1
     2    2    3 1
     3    3    4 1
     4    4    5 1
     5    4    6 1
     6    6    7 1
     7    7    8 1
     8    7    9 1
     9    9   10 1
    10    9   11 1
    11    3   11 1
    12   11   12 1
    13    1   13 1
    14    1   14 1
    15    1   15 1
    16    3   16 1
    17    4   17 1
    18    5   18 1
    19    7   19 1
    20    8   20 1
    21    8   21 1
    22    8   22 1
    23    9   23 1
    24   10   24 1
    25   11   25 1
    26   12   26 1
@<TRIPOS>MOLECULE
PGX
   58    59     0     0     0
SMALL
NO_CHARGES

@<TRIPOS>ATOM
      1 C1          1.0661   -4.1518    0.0000 C         1 <0>         0.0000
      2 C2          0.7985   -3.3714    0.0000 CT        1 <0>         0.0000
      3 C3         -0.0112   -3.2130    0.0000 CT        1 <0>         0.0000
      4 C4         -0.2788   -2.4326    0.0000 CT        1 <0>         0.0000
      5 C5          0.2632   -1.8106    0.0000 CM        1 <0>         0.0000
      6 C6         -0.0044   -1.0302    0.0000 CM        1 <0>         0.0000
      7 C7         -0.8141   -0.8718    0.0000 CT        1 <0>         0.0000
      8 C8         -1.0817   -0.0914    0.0000 CT        1 <0>         0.0000
      9 C9         -1.8122    0.2789    0.0000 CT        1 <0>         0.0000
     10 C10        -1.7421    1.8147    0.0000 CT        1 <0>         0.0000
     11 C11        -1.5821    0.9993    0.0000 CT        1 <0>         0.0000
     12 C12        -0.7866    0.5340    0.0000 CT        1 <0>         0.0000
     13 C13         0.0015    0.7780    0.0000 CM        1 <0>         0.0000
     14 C14         0.6069    0.2176    0.0000 CM        1 <0>         0.0000
     15 C15         1.3950    0.4616    0.0000 CT        1 <0>         0.0000
     16 C16         1.5776    1.2662    0.0000 CT        1 <0>         0.0000
     17 C17         0.9722    1.8266    0.0000 CT        1 <0>         0.0000
     18 C18         1.1549    2.6311    0.0000 CT        1 <0>         0.0000
     19 C19         0.5495    3.1916    0.0000 CT        1 <0>         0.0000
     20 C20         0.7322    3.9961    0.0000 CT        1 <0>         0.0000
     21 O1          1.8757   -4.3102    0.0000 O         1 <0>         0.0000
     22 O2          0.5241   -4.7737    0.0000 OH        1 <0>         0.0000
     23 O3         -2.5877   -0.1114    0.0000 OS        1 <0>         0.0000
     24 O4         -2.2224    0.5491    0.0000 OS        1 <0>         0.0000
     25 O5          2.0004   -0.0988    0.0000 OS        1 <0>         0.0000
     26 O6          1.8177   -0.9033    0.0000 OH        1 <0>         0.0000
     27 H1         -1.5222   -0.4747    0.0000 HC        1 <0>         0.0000
     28 H2         -1.8130   -0.3051    0.0000 H1        1 <0>         0.0000
     29 H3         -1.4055    1.5559    0.0000 H1        1 <0>         0.0000
     30 H4         -0.4037    0.0931    0.0000 HC        1 <0>         0.0000
     31 H5          0.9665    0.8583    0.0000 H1        1 <0>         0.0000
     32 H6          0.7985   -3.3714    0.0000 HC        1 <0>         0.0000
     33 H7          0.7985   -3.3714    0.0000 HC        1 <0>         0.0000
     34 H8         -0.0112   -3.2130    0.0000 HC        1 <0>         0.0000
     35 H9         -0.0112   -3.2130    0.0000 HC        1 <0>         0.0000
     36 H10        -0.2788   -2.4326    0.0000 HC        1 <0>         0.0000
     37 H11        -0.2788   -2.4326    0.0000 HC        1 <0>         0.0000
     38 H12         0.2632   -1.8106    0.0000 HA        1 <0>         0.0000
     39 H13        -0.0044   -1.0302    0.0000 HA        1 <0>         0.0000
     40 H14        -0.8141   -0.8718    0.0000 HC        1 <0>         0.0000
     41 H15        -0.8141   -0.8718    0.0000 HC        1 <0>         0.0000
     42 H16        -1.7421    1.8147    0.0000 HC        1 <0>         0.0000
     43 H17        -1.7421    1.8147    0.0000 HC        1 <0>         0.0000
     44 H18         0.0015    0.7780    0.0000 HA        1 <0>         0.0000
     45 H19         0.6069    0.2176    0.0000 HA        1 <0>         0.0000
     46 H20         1.5776    1.2662    0.0000 HC        1 <0>         0.0000
     47 H21         1.5776    1.2662    0.0000 HC        1 <0>         0.0000
     48 H22         0.9722    1.8266    0.0000 HC        1 <0>         0.0000
     49 H23         0.9722    1.8266    0.0000 HC        1 <0>         0.0000
     50 H24         1.1549    2.6311    0.0000 HC        1 <0>         0.0000
     51 H25         1.1549    2.6311    0.0000 HC        1 <0>         0.0000
     52 H26         0.5495    3.1916    0.0000 HC        1 <0>         0.0000
     53 H27         0.5495    3.1916    0.0000 HC        1 <0>         0.0000
     54 H28         0.7322    3.9961    0.0000 HC        1 <0>         0.0000
     55 H29         0.7322    3.9961    0.0000 HC        1 <0>         0.0000
     56 H30         0.7322    3.9961    0.0000 HC        1 <0>         0.0000
     57 H31         0.5241   -4.7737    0.0000 HO        1 <0>         0.0000
     58 H32         1.8177   -0.9033    0.0000 HO        1 <0>         0.0000
@<TRIPOS>BOND
     1    1    2 1
     2    1   21 2
     3    1   22 1
     4    2    3 1
     5    3    4 1
     6    4    5 1
     7    5    6 2
     8    6    7 1
     9    7    8 1
    10    8    9 1
    11    8   12 1
    12    8   27 1
    13    9   10 1
    14    9   23 1
    15    9   28 1
    16   10   11 1
    17   11   12 1
    18   11   24 1
    19   11   29 1
    20   12   13 1
    21   12   30 1
    22   13   14 2
    23   14   15 1
    24   15   16 1
    25   15   25 1
    26   15   31 1
    27   16   17 1
    28   17   18 1
    29   18   19 1
    30   19   20 1
    31   23   24 1
    32   25   26 1
    33    2   32 1
    34    2   33 1
    35    3   34 1
    36    3   35 1
    37    4   36 1
    38    4   37 1
    39    5   38 1
    40    6   39 1
    41    7   40 1
    42    7   41 1
    43   10   42 1
    44   10   43 1
    45   13   44 1
    46   14   45 1
    47   16   46 1
    48   16   47 1
    49   17   48 1
    50   17   49 1
    51   18   50 1
    52   18   51 1
    53   19   52 1
    54   19   53 1
    55   20   54 1
    56   20   55 1
    57   20   56 1
    58   22   57 1
    59   26   58 1
@<TRIPOS>MOLECULE
*****
   23    23     0     0     0
SMALL
NO_CHARGES

@<TRIPOS>ATOM
      1 O1         -0.7145   -0.4125    0.0000 OH        1 <0>         0.0000
      2 C1          0.0000    0.0000    0.0000 CT        1 <0>         0.0000
      3 C2          0.0000    0.8250    0.0000 CT        1 <0>         0.0000
      4 C3          0.7145    1.2375    0.0000 CT        1 <0>         0.0000
      5 O2          0.1842    1.8695    0.0000 OH        1 <0>         0.0000
      6 C4          1.4289    0.8250    0.0000 CT        1 <0>         0.0000
      7 C5          1.4289    0.0000    0.0000 C         1 <0>         0.0000
      8 O3          2.1434   -0.4125    0.0000 O         1 <0>         0.0000
      9 C6          0.7145   -0.4125    0.0000 CT        1 <0>         0.0000
     10 O4          0.7145   -1.2375    0.0000 OH        1 <0>         0.0000
     11 C7          1.2448    1.8695    0.0000 C         1 <0>         0.0000
     12 O5          0.9626    2.6447    0.0000 OH        1 <0>         0.0000
     13 O6          2.0572    1.7262    0.0000 O         1 <0>         0.0000
     14 H1         -0.7145   -0.4125    0.0000 HO        1 <0>         0.0000
     15 H2          0.0000    0.0000    0.0000 H1        1 <0>         0.0000
     16 H3          0.0000    0.8250    0.0000 HC        1 <0>         0.0000
     17 H4          0.0000    0.8250    0.0000 HC        1 <0>         0.0000
     18 H5          0.1842    1.8695    0.0000 HO        1 <0>         0.0000
     19 H6          1.4289    0.8250    0.0000 HC        1 <0>         0.0000
     20 H7          1.4289    0.8250    0.0000 HC        1 <0>         0.0000
     21 H8          0.7145   -0.4125    0.0000 H1        1 <0>         0.0000
     22 H9          0.7145   -1.2375    0.0000 HO        1 <0>         0.0000
     23 H10         0.9626    2.6447    0.0000 HO        1 <0>         0.0000
@<TRIPOS>BOND
     1    1    2 1
     2    2    3 1
     3    3    4 1
     4    4    5 1
     5    4    6 1
     6    6    7 1
     7    7    8 2
     8    7    9 1
     9    2    9 1
    10    9   10 1
    11    4   11 1
    12   11   12 1
    13   11   13 2
    14    1   14 1
    15    2   15 1
    16    3   16 1
    17    3   17 1
    18    5   18 1
    19    6   19 1
    20    6   20 1
    21    9   21 1
    22   10   22 1
    23   12   23 1
@<TRIPOS>MOLECULE
*****
   37    38     0     0     0
SMALL
NO_CHARGES

@<TRIPOS>ATOM
      1 O1          2.7512   -0.0616    0.0000 OH        1 <0>         0.0000
      2 C1          2.0367   -0.4741    0.0000 CT        1 <0>         0.0000
      3 C2          2.0367   -1.2991    0.0000 CT        1 <0>         0.0000
      4 O2          1.3693   -1.7840    0.0000 OS        1 <0>         0.0000
      5 C3          1.6242   -2.5687    0.0000 CT        1 <0>         0.0000
      6 O3          1.1393   -3.2361    0.0000 OS        1 <0>         0.0000
      7 C4          0.3188   -3.1499    0.0000 CT        1 <0>         0.0000
      8 C5         -0.1661   -3.8173    0.0000 CT        1 <0>         0.0000
      9 O4          0.1694   -4.5710    0.0000 OH        1 <0>         0.0000
     10 C6         -0.9866   -3.7311    0.0000 CT        1 <0>         0.0000
     11 O5         -1.3222   -2.9774    0.0000 OS        1 <0>         0.0000
     12 C7         -0.8372   -2.3099    0.0000 CT        1 <0>         0.0000
     13 O6         -1.1728   -1.5563    0.0000 OH        1 <0>         0.0000
     14 C8         -0.0168   -2.3962    0.0000 CT        1 <0>         0.0000
     15 O7          0.4682   -1.7287    0.0000 OH        1 <0>         0.0000
     16 C9          2.4492   -2.5687    0.0000 CT        1 <0>         0.0000
     17 O8          2.9341   -3.2361    0.0000 OH        1 <0>         0.0000
     18 C10         2.7041   -1.7840    0.0000 CT        1 <0>         0.0000
     19 O9          3.4888   -1.5291    0.0000 OH        1 <0>         0.0000
     20 H1          2.7512   -0.0616    0.0000 HO        1 <0>         0.0000
     21 H2          2.0367   -0.4741    0.0000 H1        1 <0>         0.0000
     22 H3          2.0367   -0.4741    0.0000 H1        1 <0>         0.0000
     23 H4          2.0367   -1.2991    0.0000 H1        1 <0>         0.0000
     24 H5          1.6242   -2.5687    0.0000 H2        1 <0>         0.0000
     25 H6          0.3188   -3.1499    0.0000 H1        1 <0>         0.0000
     26 H7         -0.1661   -3.8173    0.0000 H1        1 <0>         0.0000
     27 H8          0.1694   -4.5710    0.0000 HO        1 <0>         0.0000
     28 H9         -0.9866   -3.7311    0.0000 H1        1 <0>         0.0000
     29 H10        -0.9866   -3.7311    0.0000 H1        1 <0>         0.0000
     30 H11        -0.8372   -2.3099    0.0000 H2        1 <0>         0.0000
     31 H12        -1.1728   -1.5563    0.0000 HO        1 <0>         0.0000
     32 H13        -0.0168   -2.3962    0.0000 H1        1 <0>         0.0000
     33 H14         0.4682   -1.7287    0.0000 HO        1 <0>         0.0000
     34 H15         2.4492   -2.5687    0.0000 H1        1 <0>         0.0000
     35 H16         2.9341   -3.2361    0.0000 HO        1 <0>         0.0000
     36 H17         2.7041   -1.7840    0.0000 H1        1 <0>         0.0000
     37 H18         3.4888   -1.5291    0.0000 HO        1 <0>         0.0000
@<TRIPOS>BOND
     1    1    2 1
     2    2    3 1
     3    3    4 1
     4    4    5 1
     5    5    6 1
     6    6    7 1
     7    7    8 1
     8    8    9 1
     9    8   10 1
    10   10   11 1
    11   11   12 1
    12   12   13 1
    13   12   14 1
    14    7   14 1
    15   14   15 1
    16    5   16 1
    17   16   17 1
    18   16   18 1
    19    3   18 1
    20   18   19 1
    21    1   20 1
    22    2   21 1
    23    2   22 1
    24    3   23 1
    25    5   24 1
    26    7   25 1
    27    8   26 1
    28    9   27 1
    29   10   28 1
    30   10   29 1
    31   12   30 1
    32   13   31 1
    33   14   32 1
    34   15   33 1
    35   16   34 1
    36   17   35 1
    37   18   36 1
    38   19   37 1
@<TRIPOS>MOLECULE
*****
   21    21     0     0     0
SMALL
NO_CHARGES

@<TRIPOS>ATOM
      1 C1          2.1434    1.2375    0.0000 CT        1 <0>         0.0000
      2 C2          1.4289    0.8250    0.0000 CT        1 <0>         0.0000
      3 O1          1.4289    0.0000    0.0000 OS        1 <0>         0.0000
      4 C3          0.7145   -0.4125    0.0000 CT        1 <0>         0.0000
      5 O2          0.7145   -1.2375    0.0000 OH        1 <0>         0.0000
      6 C4          0.0000    0.0000    0.0000 CT        1 <0>         0.0000
      7 C5          0.0000    0.8250    0.0000 CT        1 <0>         0.0000
      8 C6          0.7145    1.2375    0.0000 CT        1 <0>         0.0000
      9 O3          0.7145    2.0625    0.0000 OH        1 <0>         0.0000
     10 H1          2.1434    1.2375    0.0000 HC        1 <0>         0.0000
     11 H2          2.1434    1.2375    0.0000 HC        1 <0>         0.0000
     12 H3          2.1434    1.2375    0.0000 HC        1 <0>         0.0000
     13 H4          1.4289    0.8250    0.0000 H1        1 <0>         0.0000
     14 H5          0.7145   -0.4125    0.0000 H2        1 <0>         0.0000
     15 H6          0.7145   -1.2375    0.0000 HO        1 <0>         0.0000
     16 H7          0.0000    0.0000    0.0000 HC        1 <0>         0.0000
     17 H8          0.0000    0.0000    0.0000 HC        1 <0>         0.0000
     18 H9          0.0000    0.8250    0.0000 HC        1 <0>         0.0000
     19 H10         0.0000    0.8250    0.0000 HC        1 <0>         0.0000
     20 H11         0.7145    1.2375    0.0000 H1        1 <0>         0.0000
     21 H12         0.7145    2.0625    0.0000 HO        1 <0>         0.0000
@<TRIPOS>BOND
     1    1    2 1
     2    2    3 1
     3    3    4 1
     4    4    5 1
     5    4    6 1
     6    6    7 1
     7    7    8 1
     8    2    8 1
     9    8    9 1
    10    1   10 1
    11    1   11 1
    12    1   12 1
    13    2   13 1
    14    4   14 1
    15    5   15 1
    16    6   16 1
    17    6   17 1
    18    7   18 1
    19    7   19 1
    20    8   20 1
    21    9   21 1
@<TRIPOS>MOLECULE
AOM
   53    56     0     0     0
SMALL
NO_CHARGES

@<TRIPOS>ATOM
      1 C1         -1.5038    0.6043    0.0000 CT        1 <0>         0.0000
      2 C2         -0.9720   -0.0264    0.0000 CT        1 <0>         0.0000
      3 C3          0.1205    0.8947    0.0000 CT        1 <0>         0.0000
      4 C4          0.9326    1.0400    0.0000 CT        1 <0>         0.0000
      5 C5          1.4644    0.4092    0.0000 CT        1 <0>         0.0000
      6 C6          1.1841   -0.3667    0.0000 CT        1 <0>         0.0000
      7 C7          1.8354   -0.8730    0.0000 CT        1 <0>         0.0000
      8 C8          2.5183   -0.4100    0.0000 CT        1 <0>         0.0000
      9 C9          2.2890    0.3824    0.0000 CT        1 <0>         0.0000
     10 C10         1.8243    1.1516    0.0000 CT        1 <0>         0.0000
     11 C11        -0.6917    0.7495    0.0000 CT        1 <0>         0.0000
     12 C12        -2.3159    0.4591    0.0000 CT        1 <0>         0.0000
     13 C13        -2.5962   -0.3168    0.0000 CT        1 <0>         0.0000
     14 C14        -2.0644   -0.9475    0.0000 CT        1 <0>         0.0000
     15 C15        -1.2523   -0.8023    0.0000 CT        1 <0>         0.0000
     16 C16        -0.7204   -1.4330    0.0000 CT        1 <0>         0.0000
     17 C17         0.0917   -1.2878    0.0000 CT        1 <0>         0.0000
     18 C18         0.3720   -0.5119    0.0000 CT        1 <0>         0.0000
     19 C19        -0.1598    0.1188    0.0000 CT        1 <0>         0.0000
     20 O1         -3.4083   -0.4620    0.0000 OH        1 <0>         0.0000
     21 O2          2.7953    1.0338    0.0000 OH        1 <0>         0.0000
     22 H1          1.0442   -0.9336    0.0000 HC        1 <0>         0.0000
     23 H2          2.0409    0.9111    0.0000 H1        1 <0>         0.0000
     24 H3         -2.9726    0.1296    0.0000 H1        1 <0>         0.0000
     25 H4         -1.4506   -1.3515    0.0000 HC        1 <0>         0.0000
     26 H5          0.7484   -0.9583    0.0000 HC        1 <0>         0.0000
     27 H6         -0.5363    0.5652    0.0000 HC        1 <0>         0.0000
     28 H7         -1.5038    0.6043    0.0000 HC        1 <0>         0.0000
     29 H8         -1.5038    0.6043    0.0000 HC        1 <0>         0.0000
     30 H9          0.1205    0.8947    0.0000 HC        1 <0>         0.0000
     31 H10         0.1205    0.8947    0.0000 HC        1 <0>         0.0000
     32 H11         0.9326    1.0400    0.0000 HC        1 <0>         0.0000
     33 H12         0.9326    1.0400    0.0000 HC        1 <0>         0.0000
     34 H13         1.8354   -0.8730    0.0000 HC        1 <0>         0.0000
     35 H14         1.8354   -0.8730    0.0000 HC        1 <0>         0.0000
     36 H15         2.5183   -0.4100    0.0000 HC        1 <0>         0.0000
     37 H16         2.5183   -0.4100    0.0000 HC        1 <0>         0.0000
     38 H17         1.8243    1.1516    0.0000 HC        1 <0>         0.0000
     39 H18         1.8243    1.1516    0.0000 HC        1 <0>         0.0000
     40 H19         1.8243    1.1516    0.0000 HC        1 <0>         0.0000
     41 H20        -0.6917    0.7495    0.0000 HC        1 <0>         0.0000
     42 H21        -0.6917    0.7495    0.0000 HC        1 <0>         0.0000
     43 H22        -0.6917    0.7495    0.0000 HC        1 <0>         0.0000
     44 H23        -2.3159    0.4591    0.0000 HC        1 <0>         0.0000
     45 H24        -2.3159    0.4591    0.0000 HC        1 <0>         0.0000
     46 H25        -2.0644   -0.9475    0.0000 HC        1 <0>         0.0000
     47 H26        -2.0644   -0.9475    0.0000 HC        1 <0>         0.0000
     48 H27        -0.7204   -1.4330    0.0000 HC        1 <0>         0.0000
     49 H28        -0.7204   -1.4330    0.0000 HC        1 <0>         0.0000
     50 H29         0.0917   -1.2878    0.0000 HC        1 <0>         0.0000
     51 H30         0.0917   -1.2878    0.0000 HC        1 <0>         0.0000
     52 H31        -3.4083   -0.4620    0.0000 HO        1 <0>         0.0000
     53 H32         2.7953    1.0338    0.0000 HO        1 <0>         0.0000
@<TRIPOS>BOND
     1    1    2 1
     2    1   12 1
     3    2   11 1
     4    2   15 1
     5    2   19 1
     6    3    4 1
     7    3   19 1
     8    4    5 1
     9    5    6 1
    10    5    9 1
    11    5   10 1
    12    6    7 1
    13    6   18 1
    14    6   22 1
    15    7    8 1
    16    8    9 1
    17    9   21 1
    18    9   23 1
    19   12   13 1
    20   13   14 1
    21   13   20 1
    22   13   24 1
    23   14   15 1
    24   15   16 1
    25   15   25 1
    26   16   17 1
    27   17   18 1
    28   18   19 1
    29   18   26 1
    30   19   27 1
    31    1   28 1
    32    1   29 1
    33    3   30 1
    34    3   31 1
    35    4   32 1
    36    4   33 1
    37    7   34 1
    38    7   35 1
    39    8   36 1
    40    8   37 1
    41   10   38 1
    42   10   39 1
    43   10   40 1
    44   11   41 1
    45   11   42 1
    46   11   43 1
    47   12   44 1
    48   12   45 1
    49   14   46 1
    50   14   47 1
    51   16   48 1
    52   16   49 1
    53   17   50 1
    54   17   51 1
    55   20   52 1
    56   21   53 1
@<TRIPOS>MOLECULE
PPY
   20    20     0     0     0
SMALL
NO_CHARGES

@<TRIPOS>ATOM
      1 C1          1.2809    1.4267    0.0000 C         1 <0>         0.0000
      2 O1          1.2809    2.2517    0.0000 O         1 <0>         0.0000
      3 O2          1.9954    1.0142    0.0000 OH        1 <0>         0.0000
      4 C2          0.5664    1.0142    0.0000 C         1 <0>         0.0000
      5 O3         -0.1481    1.4267    0.0000 O         1 <0>         0.0000
      6 C3          0.5664    0.1892    0.0000 CT        1 <0>         0.0000
      7 C4         -0.1481   -0.2233    0.0000 CA        1 <0>         0.0000
      8 C5         -0.1481   -1.0483    0.0000 CA        1 <0>         0.0000
      9 C6         -0.8625   -1.4608    0.0000 CA        1 <0>         0.0000
     10 C7         -1.5770   -1.0483    0.0000 CA        1 <0>         0.0000
     11 C8         -1.5770   -0.2233    0.0000 CA        1 <0>         0.0000
     12 C9         -0.8625    0.1892    0.0000 CA        1 <0>         0.0000
     13 H1          1.9954    1.0142    0.0000 HO        1 <0>         0.0000
     14 H2          0.5664    0.1892    0.0000 HC        1 <0>         0.0000
     15 H3          0.5664    0.1892    0.0000 HC        1 <0>         0.0000
     16 H4         -0.1481   -1.0483    0.0000 HA        1 <0>         0.0000
     17 H5         -0.8625   -1.4608    0.0000 HA        1 <0>         0.0000
     18 H6         -1.5770   -1.0483    0.0000 HA        1 <0>         0.0000
     19 H7         -1.5770   -0.2233    0.0000 HA        1 <0>         0.0000
     20 H8         -0.8625    0.1892    0.0000 HA        1 <0>         0.0000
@<TRIPOS>BOND
     1    1    2 2
     2    1    3 1
     3    1    4 1
     4    4    5 2
     5    4    6 1
     6    6    7 1
     7    7    8 ar
     8    7   12 ar
     9    8    9 ar
    10    9   10 ar
    11   10   11 ar
    12   11   12 ar
    13    3   13 1
    14    6   14 1
    15    6   15 1
    16    8   16 1
    17    9   17 1
    18   10   18 1
    19   11   19 1
    20   12   20 1
@<TRIPOS>MOLECULE
HPP
   22    22     0     0     0
SMALL
NO_CHARGES

@<TRIPOS>ATOM
      1 C1          0.0203   -0.1980    0.0000 CA        1 <0>         0.0000
      2 C2          0.0203   -1.0230    0.0000 CA        1 <0>         0.0000
      3 C3         -0.6941   -1.4355    0.0000 CA        1 <0>         0.0000
      4 C4         -1.4086   -1.0230    0.0000 CA        1 <0>         0.0000
      5 O1         -2.1231   -1.4355    0.0000 OH        1 <0>         0.0000
      6 C5         -1.4086   -0.1980    0.0000 CA        1 <0>         0.0000
      7 C6         -0.6941    0.2145    0.0000 CA        1 <0>         0.0000
      8 C7          0.7348    0.2145    0.0000 CT        1 <0>         0.0000
      9 C8          0.7348    1.0395    0.0000 CT        1 <0>         0.0000
     10 C9          1.4493    1.4520    0.0000 C         1 <0>         0.0000
     11 O2          1.4493    2.2770    0.0000 O         1 <0>         0.0000
     12 O3          2.1638    1.0395    0.0000 OH        1 <0>         0.0000
     13 H1          0.0203   -1.0230    0.0000 HA        1 <0>         0.0000
     14 H2         -0.6941   -1.4355    0.0000 HA        1 <0>         0.0000
     15 H3         -2.1231   -1.4355    0.0000 HO        1 <0>         0.0000
     16 H4         -1.4086   -0.1980    0.0000 HA        1 <0>         0.0000
     17 H5         -0.6941    0.2145    0.0000 HA        1 <0>         0.0000
     18 H6          0.7348    0.2145    0.0000 HC        1 <0>         0.0000
     19 H7          0.7348    0.2145    0.0000 HC        1 <0>         0.0000
     20 H8          0.7348    1.0395    0.0000 HC        1 <0>         0.0000
     21 H9          0.7348    1.0395    0.0000 HC        1 <0>         0.0000
     22 H10         2.1638    1.0395    0.0000 HO        1 <0>         0.0000
@<TRIPOS>BOND
     1    1    2 ar
     2    1    7 ar
     3    1    8 1
     4    2    3 ar
     5    3    4 ar
     6    4    5 1
     7    4    6 ar
     8    6    7 ar
     9    8    9 1
    10    9   10 1
    11   10   11 2
    12   10   12 1
    13    2   13 1
    14    3   14 1
    15    5   15 1
    16    6   16 1
    17    7   17 1
    18    8   18 1
    19    8   19 1
    20    9   20 1
    21    9   21 1
    22   12   22 1
@<TRIPOS>MOLECULE
*****
   15    14     0     0     0
SMALL
NO_CHARGES

@<TRIPOS>ATOM
      1 C1          0.8250   -0.8250    0.0000 CT        1 <0>         0.0000
      2 C2          0.8250    0.0000    0.0000 CT        1 <0>         0.0000
      3 C3          0.8250    0.8250    0.0000 CT        1 <0>         0.0000
      4 C4          1.6500    0.0000    0.0000 CT        1 <0>         0.0000
      5 O1          0.0000    0.0000    0.0000 OH        1 <0>         0.0000
      6 H1          0.8250   -0.8250    0.0000 HC        1 <0>         0.0000
      7 H2          0.8250   -0.8250    0.0000 HC        1 <0>         0.0000
      8 H3          0.8250   -0.8250    0.0000 HC        1 <0>         0.0000
      9 H4          0.8250    0.8250    0.0000 HC        1 <0>         0.0000
     10 H5          0.8250    0.8250    0.0000 HC        1 <0>         0.0000
     11 H6          0.8250    0.8250    0.0000 HC        1 <0>         0.0000
     12 H7          1.6500    0.0000    0.0000 HC        1 <0>         0.0000
     13 H8          1.6500    0.0000    0.0000 HC        1 <0>         0.0000
     14 H9          1.6500    0.0000    0.0000 HC        1 <0>         0.0000
     15 H10         0.0000    0.0000    0.0000 HO        1 <0>         0.0000
@<TRIPOS>BOND
     1    1    2 1
     2    2    3 1
     3    2    4 1
     4    2    5 1
     5    1    6 1
     6    1    7 1
     7    1    8 1
     8    3    9 1
     9    3   10 1
    10    3   11 1
    11    4   12 1
    12    4   13 1
    13    4   14 1
    14    5   15 1
@<TRIPOS>MOLECULE
*****
    8     7     0     0     0
SMALL
NO_CHARGES

@<TRIPOS>ATOM
      1 O1          0.8250    1.4289    0.0000 OH        1 <0>         0.0000
      2 C1          1.2375    0.7145    0.0000 C         1 <0>         0.0000
      3 O2          2.0625    0.7145    0.0000 O         1 <0>         0.0000
      4 C2          0.8250    0.0000    0.0000 C         1 <0>         0.0000
      5 O3          1.2375   -0.7145    0.0000 OH        1 <0>         0.0000
      6 O4          0.0000    0.0000    0.0000 O         1 <0>         0.0000
      7 H1          0.8250    1.4289    0.0000 HO        1 <0>         0.0000
      8 H2          1.2375   -0.7145    0.0000 HO        1 <0>         0.0000
@<TRIPOS>BOND
     1    1    2 1
     2    2    3 2
     3    2    4 1
     4    4    5 1
     5    4    6 2
     6    1    7 1
     7    5    8 1
@<TRIPOS>MOLECULE
*****
   20    20     0     0     0
SMALL
NO_CHARGES

@<TRIPOS>ATOM
      1 O1         -1.4289   -1.6500    0.0000 OH        1 <0>         0.0000
      2 C1         -0.7145   -1.2375    0.0000 CT        1 <0>         0.0000
      3 C2         -0.7145   -0.4125    0.0000 CT        1 <0>         0.0000
      4 O2          0.0000    0.0000    0.0000 OS        1 <0>         0.0000
      5 C3          0.7145   -0.4125    0.0000 CT        1 <0>         0.0000
      6 O3          1.4289    0.0000    0.0000 OH        1 <0>         0.0000
      7 C4          0.7145   -1.2375    0.0000 CT        1 <0>         0.0000
      8 O4          1.4289   -1.6500    0.0000 OH        1 <0>         0.0000
      9 C5          0.0000   -1.6500    0.0000 CT        1 <0>         0.0000
     10 O5          0.0000   -2.4750    0.0000 OH        1 <0>         0.0000
     11 H1         -1.4289   -1.6500    0.0000 HO        1 <0>         0.0000
     12 H2         -0.7145   -1.2375    0.0000 H1        1 <0>         0.0000
     13 H3         -0.7145   -0.4125    0.0000 H1        1 <0>         0.0000
     14 H4         -0.7145   -0.4125    0.0000 H1        1 <0>         0.0000
     15 H5          0.7145   -0.4125    0.0000 H2        1 <0>         0.0000
     16 H6          1.4289    0.0000    0.0000 HO        1 <0>         0.0000
     17 H7          0.7145   -1.2375    0.0000 H1        1 <0>         0.0000
     18 H8          1.4289   -1.6500    0.0000 HO        1 <0>         0.0000
     19 H9          0.0000   -1.6500    0.0000 H1        1 <0>         0.0000
     20 H10         0.0000   -2.4750    0.0000 HO        1 <0>         0.0000
@<TRIPOS>BOND
     1    1    2 1
     2    2    3 1
     3    3    4 1
     4    4    5 1
     5    5    6 1
     6    5    7 1
     7    7    8 1
     8    7    9 1
     9    2    9 1
    10    9   10 1
    11    1   11 1
    12    2   12 1
    13    3   13 1
    14    3   14 1
    15    5   15 1
    16    6   16 1
    17    7   17 1
    18    8   18 1
    19    9   19 1
    20   10   20 1
@<TRIPOS>MOLECULE
AON
   53    56     0     0     0
SMALL
NO_CHARGES

@<TRIPOS>ATOM
      1 C1         -1.5072    0.6437    0.0000 CT        1 <0>         0.0000
      2 C2         -0.9754    0.0130    0.0000 CT        1 <0>         0.0000
      3 C3          0.1171    0.9341    0.0000 CT        1 <0>         0.0000
      4 C4          0.9292    1.0793    0.0000 CT        1 <0>         0.0000
      5 C5          1.4610    0.4486    0.0000 CT        1 <0>         0.0000
      6 C6          1.1807   -0.3273    0.0000 CT        1 <0>         0.0000
      7 C7          1.8320   -0.8337    0.0000 CT        1 <0>         0.0000
      8 C8          2.5149   -0.3707    0.0000 CT        1 <0>         0.0000
      9 C9          2.2856    0.4218    0.0000 CT        1 <0>         0.0000
     10 C10         1.8209    1.1910    0.0000 CT        1 <0>         0.0000
     11 C11        -0.6951    0.7889    0.0000 CT        1 <0>         0.0000
     12 C12        -2.3193    0.4984    0.0000 CT        1 <0>         0.0000
     13 C13        -2.5996   -0.2775    0.0000 CT        1 <0>         0.0000
     14 C14        -2.0678   -0.9082    0.0000 CT        1 <0>         0.0000
     15 C15        -1.2557   -0.7630    0.0000 CT        1 <0>         0.0000
     16 C16        -0.7238   -1.3937    0.0000 CT        1 <0>         0.0000
     17 C17         0.0883   -1.2485    0.0000 CT        1 <0>         0.0000
     18 C18         0.3686   -0.4725    0.0000 CT        1 <0>         0.0000
     19 C19        -0.1632    0.1582    0.0000 CT        1 <0>         0.0000
     20 O1         -3.4117   -0.4227    0.0000 OH        1 <0>         0.0000
     21 O2          2.7919    1.0731    0.0000 OH        1 <0>         0.0000
     22 H1          1.0408   -0.8942    0.0000 HC        1 <0>         0.0000
     23 H2          2.0375    0.9504    0.0000 H1        1 <0>         0.0000
     24 H3         -2.9760    0.1689    0.0000 H1        1 <0>         0.0000
     25 H4         -1.4540   -1.3122    0.0000 HC        1 <0>         0.0000
     26 H5          0.7450   -0.9190    0.0000 HC        1 <0>         0.0000
     27 H6         -0.5396    0.6046    0.0000 HC        1 <0>         0.0000
     28 H7         -1.5072    0.6437    0.0000 HC        1 <0>         0.0000
     29 H8         -1.5072    0.6437    0.0000 HC        1 <0>         0.0000
     30 H9          0.1171    0.9341    0.0000 HC        1 <0>         0.0000
     31 H10         0.1171    0.9341    0.0000 HC        1 <0>         0.0000
     32 H11         0.9292    1.0793    0.0000 HC        1 <0>         0.0000
     33 H12         0.9292    1.0793    0.0000 HC        1 <0>         0.0000
     34 H13         1.8320   -0.8337    0.0000 HC        1 <0>         0.0000
     35 H14         1.8320   -0.8337    0.0000 HC        1 <0>         0.0000
     36 H15         2.5149   -0.3707    0.0000 HC        1 <0>         0.0000
     37 H16         2.5149   -0.3707    0.0000 HC        1 <0>         0.0000
     38 H17         1.8209    1.1910    0.0000 HC        1 <0>         0.0000
     39 H18         1.8209    1.1910    0.0000 HC        1 <0>         0.0000
     40 H19         1.8209    1.1910    0.0000 HC        1 <0>         0.0000
     41 H20        -0.6951    0.7889    0.0000 HC        1 <0>         0.0000
     42 H21        -0.6951    0.7889    0.0000 HC        1 <0>         0.0000
     43 H22        -0.6951    0.7889    0.0000 HC        1 <0>         0.0000
     44 H23        -2.3193    0.4984    0.0000 HC        1 <0>         0.0000
     45 H24        -2.3193    0.4984    0.0000 HC        1 <0>         0.0000
     46 H25        -2.0678   -0.9082    0.0000 HC        1 <0>         0.0000
     47 H26        -2.0678   -0.9082    0.0000 HC        1 <0>         0.0000
     48 H27        -0.7238   -1.3937    0.0000 HC        1 <0>         0.0000
     49 H28        -0.7238   -1.3937    0.0000 HC        1 <0>         0.0000
     50 H29         0.0883   -1.2485    0.0000 HC        1 <0>         0.0000
     51 H30         0.0883   -1.2485    0.0000 HC        1 <0>         0.0000
     52 H31        -3.4117   -0.4227    0.0000 HO        1 <0>         0.0000
     53 H32         2.7919    1.0731    0.0000 HO        1 <0>         0.0000
@<TRIPOS>BOND
     1    1    2 1
     2    1   12 1
     3    2   11 1
     4    2   15 1
     5    2   19 1
     6    3    4 1
     7    3   19 1
     8    4    5 1
     9    5    6 1
    10    5    9 1
    11    5   10 1
    12    6    7 1
    13    6   18 1
    14    6   22 1
    15    7    8 1
    16    8    9 1
    17    9   21 1
    18    9   23 1
    19   12   13 1
    20   13   14 1
    21   13   20 1
    22   13   24 1
    23   14   15 1
    24   15   16 1
    25   15   25 1
    26   16   17 1
    27   17   18 1
    28   18   19 1
    29   18   26 1
    30   19   27 1
    31    1   28 1
    32    1   29 1
    33    3   30 1
    34    3   31 1
    35    4   32 1
    36    4   33 1
    37    7   34 1
    38    7   35 1
    39    8   36 1
    40    8   37 1
    41   10   38 1
    42   10   39 1
    43   10   40 1
    44   11   41 1
    45   11   42 1
    46   11   43 1
    47   12   44 1
    48   12   45 1
    49   14   46 1
    50   14   47 1
    51   16   48 1
    52   16   49 1
    53   17   50 1
    54   17   51 1
    55   20   52 1
    56   21   53 1
@<TRIPOS>MOLECULE
*****
   34    34     0     0     0
SMALL
NO_CHARGES

@<TRIPOS>ATOM
      1 C1         -3.5724   -2.8875    0.0000 CT        1 <0>         0.0000
      2 C2         -2.8579   -3.3000    0.0000 CT        1 <0>         0.0000
      3 C3         -2.1434   -2.8875    0.0000 CT        1 <0>         0.0000
      4 C4         -1.4289   -3.3000    0.0000 CT        1 <0>         0.0000
      5 C5         -0.7145   -2.8875    0.0000 CT        1 <0>         0.0000
      6 C6          0.0000   -3.3000    0.0000 CT        1 <0>         0.0000
      7 C7          0.7145   -2.8875    0.0000 CT        1 <0>         0.0000
      8 C8          1.4289   -3.3000    0.0000 CA        1 <0>         0.0000
      9 C9          2.1434   -2.8875    0.0000 CA        1 <0>         0.0000
     10 C10         2.8579   -3.3000    0.0000 CA        1 <0>         0.0000
     11 C11         2.8579   -4.1250    0.0000 CA        1 <0>         0.0000
     12 O1          3.5724   -4.5375    0.0000 OH        1 <0>         0.0000
     13 C12         2.1434   -4.5375    0.0000 CA        1 <0>         0.0000
     14 C13         1.4289   -4.1250    0.0000 CA        1 <0>         0.0000
     15 H1         -3.5724   -2.8875    0.0000 HC        1 <0>         0.0000
     16 H2         -3.5724   -2.8875    0.0000 HC        1 <0>         0.0000
     17 H3         -3.5724   -2.8875    0.0000 HC        1 <0>         0.0000
     18 H4         -2.8579   -3.3000    0.0000 HC        1 <0>         0.0000
     19 H5         -2.8579   -3.3000    0.0000 HC        1 <0>         0.0000
     20 H6         -2.1434   -2.8875    0.0000 HC        1 <0>         0.0000
     21 H7         -2.1434   -2.8875    0.0000 HC        1 <0>         0.0000
     22 H8         -1.4289   -3.3000    0.0000 HC        1 <0>         0.0000
     23 H9         -1.4289   -3.3000    0.0000 HC        1 <0>         0.0000
     24 H10        -0.7145   -2.8875    0.0000 HC        1 <0>         0.0000
     25 H11        -0.7145   -2.8875    0.0000 HC        1 <0>         0.0000
     26 H12         0.0000   -3.3000    0.0000 HC        1 <0>         0.0000
     27 H13         0.0000   -3.3000    0.0000 HC        1 <0>         0.0000
     28 H14         0.7145   -2.8875    0.0000 HC        1 <0>         0.0000
     29 H15         0.7145   -2.8875    0.0000 HC        1 <0>         0.0000
     30 H16         2.1434   -2.8875    0.0000 HA        1 <0>         0.0000
     31 H17         2.8579   -3.3000    0.0000 HA        1 <0>         0.0000
     32 H18         3.5724   -4.5375    0.0000 HO        1 <0>         0.0000
     33 H19         2.1434   -4.5375    0.0000 HA        1 <0>         0.0000
     34 H20         1.4289   -4.1250    0.0000 HA        1 <0>         0.0000
@<TRIPOS>BOND
     1    1    2 1
     2    2    3 1
     3    3    4 1
     4    4    5 1
     5    5    6 1
     6    6    7 1
     7    7    8 1
     8    8    9 ar
     9    9   10 ar
    10   10   11 ar
    11   11   12 1
    12   11   13 ar
    13   13   14 ar
    14    8   14 ar
    15    1   15 1
    16    1   16 1
    17    1   17 1
    18    2   18 1
    19    2   19 1
    20    3   20 1
    21    3   21 1
    22    4   22 1
    23    4   23 1
    24    5   24 1
    25    5   25 1
    26    6   26 1
    27    6   27 1
    28    7   28 1
    29    7   29 1
    30    9   30 1
    31   10   31 1
    32   12   32 1
    33   13   33 1
    34   14   34 1
@<TRIPOS>MOLECULE
Protocatechuic acid
   17    17     0     0     0
SMALL
NO_CHARGES

@<TRIPOS>ATOM
      1 O1          0.0000    2.4750    0.0000 OH        1 <0>         0.0000
      2 C1          0.7145    2.0625    0.0000 C         1 <0>         0.0000
      3 O2          1.4289    2.4750    0.0000 O         1 <0>         0.0000
      4 C2          0.7145    1.2375    0.0000 CA        1 <0>         0.0000
      5 C3          1.4289    0.8250    0.0000 CA        1 <0>         0.0000
      6 C4          1.4289    0.0000    0.0000 CA        1 <0>         0.0000
      7 O3          2.1434   -0.4125    0.0000 OH        1 <0>         0.0000
      8 C5          0.7145   -0.4125    0.0000 CA        1 <0>         0.0000
      9 O4          0.7145   -1.2375    0.0000 OH        1 <0>         0.0000
     10 C6          0.0000    0.0000    0.0000 CA        1 <0>         0.0000
     11 C7          0.0000    0.8250    0.0000 CA        1 <0>         0.0000
     12 H1          0.0000    2.4750    0.0000 HO        1 <0>         0.0000
     13 H2          1.4289    0.8250    0.0000 HA        1 <0>         0.0000
     14 H3          2.1434   -0.4125    0.0000 HO        1 <0>         0.0000
     15 H4          0.7145   -1.2375    0.0000 HO        1 <0>         0.0000
     16 H5          0.0000    0.0000    0.0000 HA        1 <0>         0.0000
     17 H6          0.0000    0.8250    0.0000 HA        1 <0>         0.0000
@<TRIPOS>BOND
     1    1    2 1
     2    2    3 2
     3    2    4 1
     4    4    5 ar
     5    5    6 ar
     6    6    7 1
     7    6    8 ar
     8    8    9 1
     9    8   10 ar
    10   10   11 ar
    11    4   11 ar
    12    1   12 1
    13    5   13 1
    14    7   14 1
    15    9   15 1
    16   10   16 1
    17   11   17 1
@<TRIPOS>MOLECULE
*****
   20    19     0     0     0
SMALL
NO_CHARGES

@<TRIPOS>ATOM
      1 O1          1.7605    1.8414    0.0000 OH        1 <0>         0.0000
      2 C1          2.4750    1.4289    0.0000 CT        1 <0>         0.0000
      3 C2          3.1895    1.8414    0.0000 CT        1 <0>         0.0000
      4 O2          3.1895    2.6664    0.0000 OH        1 <0>         0.0000
      5 C3          3.9039    1.4289    0.0000 CT        1 <0>         0.0000
      6 O3          3.9039    0.6039    0.0000 OH        1 <0>         0.0000
      7 C4          4.6184    1.8414    0.0000 C         1 <0>         0.0000
      8 O4          4.6184    2.6664    0.0000 O         1 <0>         0.0000
      9 C5          5.3329    1.4289    0.0000 CT        1 <0>         0.0000
     10 O5          6.0474    1.8414    0.0000 OH        1 <0>         0.0000
     11 H1          1.7605    1.8414    0.0000 HO        1 <0>         0.0000
     12 H2          2.4750    1.4289    0.0000 H1        1 <0>         0.0000
     13 H3          2.4750    1.4289    0.0000 H1        1 <0>         0.0000
     14 H4          3.1895    1.8414    0.0000 H1        1 <0>         0.0000
     15 H5          3.1895    2.6664    0.0000 HO        1 <0>         0.0000
     16 H6          3.9039    1.4289    0.0000 H1        1 <0>         0.0000
     17 H7          3.9039    0.6039    0.0000 HO        1 <0>         0.0000
     18 H8          5.3329    1.4289    0.0000 H1        1 <0>         0.0000
     19 H9          5.3329    1.4289    0.0000 H1        1 <0>         0.0000
     20 H10         6.0474    1.8414    0.0000 HO        1 <0>         0.0000
@<TRIPOS>BOND
     1    1    2 1
     2    2    3 1
     3    3    4 1
     4    3    5 1
     5    5    6 1
     6    5    7 1
     7    7    8 2
     8    7    9 1
     9    9   10 1
    10    1   11 1
    11    2   12 1
    12    2   13 1
    13    3   14 1
    14    4   15 1
    15    5   16 1
    16    6   17 1
    17    9   18 1
    18    9   19 1
    19   10   20 1
@<TRIPOS>MOLECULE
*****
   16    15     0     0     0
SMALL
NO_CHARGES

@<TRIPOS>ATOM
      1 O1          0.8250    1.4289    0.0000 OH        1 <0>         0.0000
      2 C1          1.2375    0.7145    0.0000 CT        1 <0>         0.0000
      3 C2          2.0625    0.7145    0.0000 C         1 <0>         0.0000
      4 O2          2.4750    1.4289    0.0000 O2        1 <0>         0.0000
      5 O3          2.4750    0.0000    0.0000 O2        1 <0>         0.0000
      6 C3          0.8250    0.0000    0.0000 CM        1 <0>         0.0000
      7 C4          0.0000    0.0000    0.0000 CM        1 <0>         0.0000
      8 C5         -0.4125   -0.7145    0.0000 C         1 <0>         0.0000
      9 O4          0.0000   -1.4289    0.0000 O2        1 <0>         0.0000
     10 O5         -1.2375   -0.7145    0.0000 O2        1 <0>         0.0000
     11 C6          1.2375   -0.7145    0.0000 C         1 <0>         0.0000
     12 O6          0.8250   -1.4289    0.0000 O2        1 <0>         0.0000
     13 O7          2.0625   -0.7145    0.0000 O2        1 <0>         0.0000
     14 H1          0.8250    1.4289    0.0000 HO        1 <0>         0.0000
     15 H2          1.2375    0.7145    0.0000 H1        1 <0>         0.0000
     16 H3          0.0000    0.0000    0.0000 HA        1 <0>         0.0000
@<TRIPOS>BOND
     1    1    2 1
     2    2    3 1
     3    3    4 1
     4    3    5 2
     5    2    6 1
     6    6    7 2
     7    7    8 1
     8    8    9 1
     9    8   10 2
    10    6   11 1
    11   11   12 1
    12   11   13 2
    13    1   14 1
    14    2   15 1
    15    7   16 1
@<TRIPOS>MOLECULE
*****
   20    19     0     0     0
SMALL
NO_CHARGES

@<TRIPOS>ATOM
      1 C1         -0.1914    0.7145    0.0000 CT        1 <0>         0.0000
      2 C2          0.5230    1.1270    0.0000 CT        1 <0>         0.0000
      3 C3          0.5230    1.9520    0.0000 CT        1 <0>         0.0000
      4 C4          1.2375    0.7145    0.0000 CT        1 <0>         0.0000
      5 C5          1.9520    1.1270    0.0000 CT        1 <0>         0.0000
      6 C6          2.6664    0.7145    0.0000 C         1 <0>         0.0000
      7 O1          3.3809    1.1270    0.0000 OH        1 <0>         0.0000
      8 O2          2.6664   -0.1105    0.0000 O         1 <0>         0.0000
      9 H1         -0.1914    0.7145    0.0000 HC        1 <0>         0.0000
     10 H2         -0.1914    0.7145    0.0000 HC        1 <0>         0.0000
     11 H3         -0.1914    0.7145    0.0000 HC        1 <0>         0.0000
     12 H4          0.5230    1.1270    0.0000 HC        1 <0>         0.0000
     13 H5          0.5230    1.9520    0.0000 HC        1 <0>         0.0000
     14 H6          0.5230    1.9520    0.0000 HC        1 <0>         0.0000
     15 H7          0.5230    1.9520    0.0000 HC        1 <0>         0.0000
     16 H8          1.2375    0.7145    0.0000 HC        1 <0>         0.0000
     17 H9          1.2375    0.7145    0.0000 HC        1 <0>         0.0000
     18 H10         1.9520    1.1270    0.0000 HC        1 <0>         0.0000
     19 H11         1.9520    1.1270    0.0000 HC        1 <0>         0.0000
     20 H12         3.3809    1.1270    0.0000 HO        1 <0>         0.0000
@<TRIPOS>BOND
     1    1    2 1
     2    2    3 1
     3    2    4 1
     4    4    5 1
     5    5    6 1
     6    6    7 1
     7    6    8 2
     8    1    9 1
     9    1   10 1
    10    1   11 1
    11    2   12 1
    12    3   13 1
    13    3   14 1
    14    3   15 1
    15    4   16 1
    16    4   17 1
    17    5   18 1
    18    5   19 1
    19    7   20 1
@<TRIPOS>MOLECULE
*****
  147   154     0     0     0
SMALL
NO_CHARGES

@<TRIPOS>ATOM
      1 O1          6.9400   -2.7713    0.0000 OH        1 <0>         0.0000
      2 C1          6.2368   -2.3756    0.0000 CT        1 <0>         0.0000
      3 C2          6.2279   -1.5690    0.0000 CT        1 <0>         0.0000
      4 O2          6.9248   -1.1685    0.0000 OS        1 <0>         0.0000
      5 C3          6.9483   -0.3429    0.0000 CT        1 <0>         0.0000
      6 O3          7.7857   -0.2200    0.0000 OS        1 <0>         0.0000
      7 C4          8.5918   -0.4515    0.0000 CT        1 <0>         0.0000
      8 C5          9.2515    0.0506    0.0000 CT        1 <0>         0.0000
      9 C6          9.1373    0.8492    0.0000 CT        1 <0>         0.0000
     10 O4          9.7720    1.3474    0.0000 OH        1 <0>         0.0000
     11 O5         10.0151   -0.2429    0.0000 OS        1 <0>         0.0000
     12 C7         10.1421   -1.0628    0.0000 CT        1 <0>         0.0000
     13 O6         10.7602   -1.6409    0.0000 OS        1 <0>         0.0000
     14 C8         11.0818   -2.4155    0.0000 CT        1 <0>         0.0000
     15 C9         10.5354   -3.0336    0.0000 CT        1 <0>         0.0000
     16 C10         9.7469   -2.8627    0.0000 CT        1 <0>         0.0000
     17 O7          9.2046   -3.4602    0.0000 OH        1 <0>         0.0000
     18 O8         10.7707   -3.8020    0.0000 OS        1 <0>         0.0000
     19 C11        11.5704   -4.0087    0.0000 CT        1 <0>         0.0000
     20 O9         11.5038   -4.8524    0.0000 OS        1 <0>         0.0000
     21 C12        11.0987   -5.5867    0.0000 CT        1 <0>         0.0000
     22 C13        11.4415   -6.3416    0.0000 CT        1 <0>         0.0000
     23 C14        12.2455   -6.4082    0.0000 CT        1 <0>         0.0000
     24 O10        12.7052   -5.7451    0.0000 OH        1 <0>         0.0000
     25 O11        10.9855   -7.0208    0.0000 OS        1 <0>         0.0000
     26 C15        10.1578   -6.9622    0.0000 CT        1 <0>         0.0000
     27 O12         9.4566   -7.4362    0.0000 OS        1 <0>         0.0000
     28 C16         8.6300   -7.5773    0.0000 CT        1 <0>         0.0000
     29 C17         8.2535   -8.3159    0.0000 CT        1 <0>         0.0000
     30 C18         8.7028   -8.9860    0.0000 CT        1 <0>         0.0000
     31 O13         8.3471   -9.7101    0.0000 OH        1 <0>         0.0000
     32 O14         7.4381   -8.3829    0.0000 OS        1 <0>         0.0000
     33 C19         6.9680   -7.6992    0.0000 CT        1 <0>         0.0000
     34 O15         6.1602   -7.4465    0.0000 OS        1 <0>         0.0000
     35 C20         5.5344   -6.8882    0.0000 CT        1 <0>         0.0000
     36 C21         4.7223   -7.0544    0.0000 CT        1 <0>         0.0000
     37 C22         4.4785   -7.8234    0.0000 CT        1 <0>         0.0000
     38 O16         3.6906   -7.9969    0.0000 OH        1 <0>         0.0000
     39 O17         4.1615   -6.4586    0.0000 OS        1 <0>         0.0000
     40 C23         4.4030   -5.6648    0.0000 CT        1 <0>         0.0000
     41 O18         4.0968   -4.8757    0.0000 OS        1 <0>         0.0000
     42 C24         4.1431   -4.0384    0.0000 CT        1 <0>         0.0000
     43 C25         3.5068   -3.5070    0.0000 CT        1 <0>         0.0000
     44 C26         2.7535   -3.7959    0.0000 CT        1 <0>         0.0000
     45 O19         2.1267   -3.2879    0.0000 OH        1 <0>         0.0000
     46 O20         3.6230   -2.6972    0.0000 OS        1 <0>         0.0000
     47 C27         4.3942   -2.3909    0.0000 CT        1 <0>         0.0000
     48 O21         4.8202   -1.6596    0.0000 OS        1 <0>         0.0000
     49 C28         5.5038   -1.1738    0.0000 CT        1 <0>         0.0000
     50 C29         5.5225   -0.3449    0.0000 CT        1 <0>         0.0000
     51 O22         4.8270    0.0639    0.0000 OH        1 <0>         0.0000
     52 C30         6.2281    0.0691    0.0000 CT        1 <0>         0.0000
     53 O23         6.2236    0.8759    0.0000 OH        1 <0>         0.0000
     54 C31         5.0250   -2.9242    0.0000 CT        1 <0>         0.0000
     55 O24         5.7805   -2.6409    0.0000 OH        1 <0>         0.0000
     56 C32         4.9037   -3.7185    0.0000 CT        1 <0>         0.0000
     57 O25         5.5399   -4.2146    0.0000 OH        1 <0>         0.0000
     58 C33         5.2132   -5.5040    0.0000 CT        1 <0>         0.0000
     59 O26         5.4626   -4.7368    0.0000 OH        1 <0>         0.0000
     60 C34         5.7586   -6.0943    0.0000 CT        1 <0>         0.0000
     61 O27         6.5430   -5.9060    0.0000 OH        1 <0>         0.0000
     62 C35         7.3475   -6.9655    0.0000 CT        1 <0>         0.0000
     63 O28         6.9032   -6.2920    0.0000 OH        1 <0>         0.0000
     64 C36         8.1490   -6.9070    0.0000 CT        1 <0>         0.0000
     65 O29         8.4909   -6.1763    0.0000 OH        1 <0>         0.0000
     66 C37         9.8208   -6.2080    0.0000 CT        1 <0>         0.0000
     67 O30         9.0173   -6.1354    0.0000 OH        1 <0>         0.0000
     68 C38        10.2749   -5.5450    0.0000 CT        1 <0>         0.0000
     69 O31         9.9168   -4.8219    0.0000 OH        1 <0>         0.0000
     70 C39        12.1323   -3.3982    0.0000 CT        1 <0>         0.0000
     71 O32        12.9198   -3.5734    0.0000 OH        1 <0>         0.0000
     72 C40        11.8857   -2.6182    0.0000 CT        1 <0>         0.0000
     73 O33        12.4390   -2.0310    0.0000 OH        1 <0>         0.0000
     74 C41         9.4819   -1.5592    0.0000 CT        1 <0>         0.0000
     75 O34         9.5899   -2.3587    0.0000 OH        1 <0>         0.0000
     76 C42         8.7343   -1.2642    0.0000 CT        1 <0>         0.0000
     77 O35         8.1092   -1.7740    0.0000 OH        1 <0>         0.0000
     78 H1          6.9400   -2.7713    0.0000 HO        1 <0>         0.0000
     79 H2          6.2368   -2.3756    0.0000 H1        1 <0>         0.0000
     80 H3          6.2368   -2.3756    0.0000 H1        1 <0>         0.0000
     81 H4          6.2279   -1.5690    0.0000 H1        1 <0>         0.0000
     82 H5          6.9483   -0.3429    0.0000 H2        1 <0>         0.0000
     83 H6          8.5918   -0.4515    0.0000 H1        1 <0>         0.0000
     84 H7          9.2515    0.0506    0.0000 H1        1 <0>         0.0000
     85 H8          9.1373    0.8492    0.0000 H1        1 <0>         0.0000
     86 H9          9.1373    0.8492    0.0000 H1        1 <0>         0.0000
     87 H10         9.7720    1.3474    0.0000 HO        1 <0>         0.0000
     88 H11        10.1421   -1.0628    0.0000 H2        1 <0>         0.0000
     89 H12        11.0818   -2.4155    0.0000 H1        1 <0>         0.0000
     90 H13        10.5354   -3.0336    0.0000 H1        1 <0>         0.0000
     91 H14         9.7469   -2.8627    0.0000 H1        1 <0>         0.0000
     92 H15         9.7469   -2.8627    0.0000 H1        1 <0>         0.0000
     93 H16         9.2046   -3.4602    0.0000 HO        1 <0>         0.0000
     94 H17        11.5704   -4.0087    0.0000 H2        1 <0>         0.0000
     95 H18        11.0987   -5.5867    0.0000 H1        1 <0>         0.0000
     96 H19        11.4415   -6.3416    0.0000 H1        1 <0>         0.0000
     97 H20        12.2455   -6.4082    0.0000 H1        1 <0>         0.0000
     98 H21        12.2455   -6.4082    0.0000 H1        1 <0>         0.0000
     99 H22        12.7052   -5.7451    0.0000 HO        1 <0>         0.0000
    100 H23        10.1578   -6.9622    0.0000 H2        1 <0>         0.0000
    101 H24         8.6300   -7.5773    0.0000 H1        1 <0>         0.0000
    102 H25         8.2535   -8.3159    0.0000 H1        1 <0>         0.0000
    103 H26         8.7028   -8.9860    0.0000 H1        1 <0>         0.0000
    104 H27         8.7028   -8.9860    0.0000 H1        1 <0>         0.0000
    105 H28         8.3471   -9.7101    0.0000 HO        1 <0>         0.0000
    106 H29         6.9680   -7.6992    0.0000 H2        1 <0>         0.0000
    107 H30         5.5344   -6.8882    0.0000 H1        1 <0>         0.0000
    108 H31         4.7223   -7.0544    0.0000 H1        1 <0>         0.0000
    109 H32         4.4785   -7.8234    0.0000 H1        1 <0>         0.0000
    110 H33         4.4785   -7.8234    0.0000 H1        1 <0>         0.0000
    111 H34         3.6906   -7.9969    0.0000 HO        1 <0>         0.0000
    112 H35         4.4030   -5.6648    0.0000 H2        1 <0>         0.0000
    113 H36         4.1431   -4.0384    0.0000 H1        1 <0>         0.0000
    114 H37         3.5068   -3.5070    0.0000 H1        1 <0>         0.0000
    115 H38         2.7535   -3.7959    0.0000 H1        1 <0>         0.0000
    116 H39         2.7535   -3.7959    0.0000 H1        1 <0>         0.0000
    117 H40         2.1267   -3.2879    0.0000 HO        1 <0>         0.0000
    118 H41         4.3942   -2.3909    0.0000 H2        1 <0>         0.0000
    119 H42         5.5038   -1.1738    0.0000 H1        1 <0>         0.0000
    120 H43         5.5225   -0.3449    0.0000 H1        1 <0>         0.0000
    121 H44         4.8270    0.0639    0.0000 HO        1 <0>         0.0000
    122 H45         6.2281    0.0691    0.0000 H1        1 <0>         0.0000
    123 H46         6.2236    0.8759    0.0000 HO        1 <0>         0.0000
    124 H47         5.0250   -2.9242    0.0000 H1        1 <0>         0.0000
    125 H48         5.7805   -2.6409    0.0000 HO        1 <0>         0.0000
    126 H49         4.9037   -3.7185    0.0000 H1        1 <0>         0.0000
    127 H50         5.5399   -4.2146    0.0000 HO        1 <0>         0.0000
    128 H51         5.2132   -5.5040    0.0000 H1        1 <0>         0.0000
    129 H52         5.4626   -4.7368    0.0000 HO        1 <0>         0.0000
    130 H53         5.7586   -6.0943    0.0000 H1        1 <0>         0.0000
    131 H54         6.5430   -5.9060    0.0000 HO        1 <0>         0.0000
    132 H55         7.3475   -6.9655    0.0000 H1        1 <0>         0.0000
    133 H56         6.9032   -6.2920    0.0000 HO        1 <0>         0.0000
    134 H57         8.1490   -6.9070    0.0000 H1        1 <0>         0.0000
    135 H58         8.4909   -6.1763    0.0000 HO        1 <0>         0.0000
    136 H59         9.8208   -6.2080    0.0000 H1        1 <0>         0.0000
    137 H60         9.0173   -6.1354    0.0000 HO        1 <0>         0.0000
    138 H61        10.2749   -5.5450    0.0000 H1        1 <0>         0.0000
    139 H62         9.9168   -4.8219    0.0000 HO        1 <0>         0.0000
    140 H63        12.1323   -3.3982    0.0000 H1        1 <0>         0.0000
    141 H64        12.9198   -3.5734    0.0000 HO        1 <0>         0.0000
    142 H65        11.8857   -2.6182    0.0000 H1        1 <0>         0.0000
    143 H66        12.4390   -2.0310    0.0000 HO        1 <0>         0.0000
    144 H67         9.4819   -1.5592    0.0000 H1        1 <0>         0.0000
    145 H68         9.5899   -2.3587    0.0000 HO        1 <0>         0.0000
    146 H69         8.7343   -1.2642    0.0000 H1        1 <0>         0.0000
    147 H70         8.1092   -1.7740    0.0000 HO        1 <0>         0.0000
@<TRIPOS>BOND
     1    1    2 1
     2    2    3 1
     3    3    4 1
     4    4    5 1
     5    5    6 1
     6    6    7 1
     7    7    8 1
     8    8    9 1
     9    9   10 1
    10    8   11 1
    11   11   12 1
    12   12   13 1
    13   13   14 1
    14   14   15 1
    15   15   16 1
    16   16   17 1
    17   15   18 1
    18   18   19 1
    19   19   20 1
    20   20   21 1
    21   21   22 1
    22   22   23 1
    23   23   24 1
    24   22   25 1
    25   25   26 1
    26   26   27 1
    27   27   28 1
    28   28   29 1
    29   29   30 1
    30   30   31 1
    31   29   32 1
    32   32   33 1
    33   33   34 1
    34   34   35 1
    35   35   36 1
    36   36   37 1
    37   37   38 1
    38   36   39 1
    39   39   40 1
    40   40   41 1
    41   41   42 1
    42   42   43 1
    43   43   44 1
    44   44   45 1
    45   43   46 1
    46   46   47 1
    47   47   48 1
    48   48   49 1
    49    3   49 1
    50   49   50 1
    51   50   51 1
    52   50   52 1
    53    5   52 1
    54   52   53 1
    55   47   54 1
    56   54   55 1
    57   54   56 1
    58   42   56 1
    59   56   57 1
    60   40   58 1
    61   58   59 1
    62   58   60 1
    63   35   60 1
    64   60   61 1
    65   33   62 1
    66   62   63 1
    67   62   64 1
    68   28   64 1
    69   64   65 1
    70   26   66 1
    71   66   67 1
    72   66   68 1
    73   21   68 1
    74   68   69 1
    75   19   70 1
    76   70   71 1
    77   70   72 1
    78   14   72 1
    79   72   73 1
    80   12   74 1
    81   74   75 1
    82   74   76 1
    83    7   76 1
    84   76   77 1
    85    1   78 1
    86    2   79 1
    87    2   80 1
    88    3   81 1
    89    5   82 1
    90    7   83 1
    91    8   84 1
    92    9   85 1
    93    9   86 1
    94   10   87 1
    95   12   88 1
    96   14   89 1
    97   15   90 1
    98   16   91 1
    99   16   92 1
   100   17   93 1
   101   19   94 1
   102   21   95 1
   103   22   96 1
   104   23   97 1
   105   23   98 1
   106   24   99 1
   107   26  100 1
   108   28  101 1
   109   29  102 1
   110   30  103 1
   111   30  104 1
   112   31  105 1
   113   33  106 1
   114   35  107 1
   115   36  108 1
   116   37  109 1
   117   37  110 1
   118   38  111 1
   119   40  112 1
   120   42  113 1
   121   43  114 1
   122   44  115 1
   123   44  116 1
   124   45  117 1
   125   47  118 1
   126   49  119 1
   127   50  120 1
   128   51  121 1
   129   52  122 1
   130   53  123 1
   131   54  124 1
   132   55  125 1
   133   56  126 1
   134   57  127 1
   135   58  128 1
   136   59  129 1
   137   60  130 1
   138   61  131 1
   139   62  132 1
   140   63  133 1
   141   64  134 1
   142   65  135 1
   143   66  136 1
   144   67  137 1
   145   68  138 1
   146   69  139 1
   147   70  140 1
   148   71  141 1
   149   72  142 1
   150   73  143 1
   151   74  144 1
   152   75  145 1
   153   76  146 1
   154   77  147 1
@<TRIPOS>MOLECULE
*****
   73    76     0     0     0
SMALL
NO_CHARGES

@<TRIPOS>ATOM
      1 C1         -0.5116   -1.2739    0.0000 CT        1 <0>         0.0000
      2 C2          0.3056   -1.3868    0.0000 CT        1 <0>         0.0000
      3 C3          0.8120   -0.7354    0.0000 CT        1 <0>         0.0000
      4 C4          0.6165   -2.1509    0.0000 CT        1 <0>         0.0000
      5 C5          0.1102   -2.8023    0.0000 CT        1 <0>         0.0000
      6 C6          1.4338   -2.2638    0.0000 CM        1 <0>         0.0000
      7 C7          1.7447   -3.0280    0.0000 CM        1 <0>         0.0000
      8 C8          2.5619   -3.1408    0.0000 CT        1 <0>         0.0000
      9 C9          2.8728   -3.9050    0.0000 CT        1 <0>         0.0000
     10 C10         3.0683   -2.4895    0.0000 CT        1 <0>         0.0000
     11 C11         2.8390   -1.6970    0.0000 CT        1 <0>         0.0000
     12 C12         3.5218   -1.2340    0.0000 CT        1 <0>         0.0000
     13 C13         4.1731   -1.7404    0.0000 CT        1 <0>         0.0000
     14 C14         4.9853   -1.5952    0.0000 CM        1 <0>         0.0000
     15 C15         5.2655   -0.8192    0.0000 CM        1 <0>         0.0000
     16 C16         6.0777   -0.6740    0.0000 CM        1 <0>         0.0000
     17 C17         6.6095   -1.3047    0.0000 CM        1 <0>         0.0000
     18 C18         7.4216   -1.1595    0.0000 CT        1 <0>         0.0000
     19 C19         7.9534   -1.7902    0.0000 CT        1 <0>         0.0000
     20 O1          8.7655   -1.6450    0.0000 OH        1 <0>         0.0000
     21 C20         7.6731   -2.5662    0.0000 CT        1 <0>         0.0000
     22 C21         6.8610   -2.7114    0.0000 CT        1 <0>         0.0000
     23 C22         6.3292   -2.0807    0.0000 CT        1 <0>         0.0000
     24 C23         6.0489   -2.8566    0.0000 CT        1 <0>         0.0000
     25 C24         5.5171   -2.2259    0.0000 CT        1 <0>         0.0000
     26 C25         5.2368   -3.0018    0.0000 CT        1 <0>         0.0000
     27 C26         4.4247   -3.1470    0.0000 CT        1 <0>         0.0000
     28 C27         3.8928   -2.5163    0.0000 CT        1 <0>         0.0000
     29 C28         3.5330   -3.2587    0.0000 CT        1 <0>         0.0000
     30 H1         -0.5116   -1.2739    0.0000 HC        1 <0>         0.0000
     31 H2         -0.5116   -1.2739    0.0000 HC        1 <0>         0.0000
     32 H3         -0.5116   -1.2739    0.0000 HC        1 <0>         0.0000
     33 H4          0.3056   -1.3868    0.0000 HC        1 <0>         0.0000
     34 H5          0.8120   -0.7354    0.0000 HC        1 <0>         0.0000
     35 H6          0.8120   -0.7354    0.0000 HC        1 <0>         0.0000
     36 H7          0.8120   -0.7354    0.0000 HC        1 <0>         0.0000
     37 H8          0.6165   -2.1509    0.0000 HC        1 <0>         0.0000
     38 H9          0.1102   -2.8023    0.0000 HC        1 <0>         0.0000
     39 H10         0.1102   -2.8023    0.0000 HC        1 <0>         0.0000
     40 H11         0.1102   -2.8023    0.0000 HC        1 <0>         0.0000
     41 H12         1.4338   -2.2638    0.0000 HA        1 <0>         0.0000
     42 H13         1.7447   -3.0280    0.0000 HA        1 <0>         0.0000
     43 H14         2.5619   -3.1408    0.0000 HC        1 <0>         0.0000
     44 H15         2.8728   -3.9050    0.0000 HC        1 <0>         0.0000
     45 H16         2.8728   -3.9050    0.0000 HC        1 <0>         0.0000
     46 H17         2.8728   -3.9050    0.0000 HC        1 <0>         0.0000
     47 H18         3.0683   -2.4895    0.0000 HC        1 <0>         0.0000
     48 H19         2.8390   -1.6970    0.0000 HC        1 <0>         0.0000
     49 H20         2.8390   -1.6970    0.0000 HC        1 <0>         0.0000
     50 H21         3.5218   -1.2340    0.0000 HC        1 <0>         0.0000
     51 H22         3.5218   -1.2340    0.0000 HC        1 <0>         0.0000
     52 H23         4.1731   -1.7404    0.0000 HC        1 <0>         0.0000
     53 H24         5.2655   -0.8192    0.0000 HA        1 <0>         0.0000
     54 H25         6.0777   -0.6740    0.0000 HA        1 <0>         0.0000
     55 H26         7.4216   -1.1595    0.0000 HC        1 <0>         0.0000
     56 H27         7.4216   -1.1595    0.0000 HC        1 <0>         0.0000
     57 H28         7.9534   -1.7902    0.0000 H1        1 <0>         0.0000
     58 H29         8.7655   -1.6450    0.0000 HO        1 <0>         0.0000
     59 H30         7.6731   -2.5662    0.0000 HC        1 <0>         0.0000
     60 H31         7.6731   -2.5662    0.0000 HC        1 <0>         0.0000
     61 H32         6.8610   -2.7114    0.0000 HC        1 <0>         0.0000
     62 H33         6.8610   -2.7114    0.0000 HC        1 <0>         0.0000
     63 H34         6.0489   -2.8566    0.0000 HC        1 <0>         0.0000
     64 H35         6.0489   -2.8566    0.0000 HC        1 <0>         0.0000
     65 H36         6.0489   -2.8566    0.0000 HC        1 <0>         0.0000
     66 H37         5.5171   -2.2259    0.0000 HC        1 <0>         0.0000
     67 H38         5.2368   -3.0018    0.0000 HC        1 <0>         0.0000
     68 H39         5.2368   -3.0018    0.0000 HC        1 <0>         0.0000
     69 H40         4.4247   -3.1470    0.0000 HC        1 <0>         0.0000
     70 H41         4.4247   -3.1470    0.0000 HC        1 <0>         0.0000
     71 H42         3.5330   -3.2587    0.0000 HC        1 <0>         0.0000
     72 H43         3.5330   -3.2587    0.0000 HC        1 <0>         0.0000
     73 H44         3.5330   -3.2587    0.0000 HC        1 <0>         0.0000
@<TRIPOS>BOND
     1    1    2 1
     2    2    3 1
     3    2    4 1
     4    4    5 1
     5    4    6 1
     6    6    7 2
     7    7    8 1
     8    8    9 1
     9    8   10 1
    10   10   11 1
    11   11   12 1
    12   12   13 1
    13   13   14 1
    14   14   15 2
    15   15   16 1
    16   16   17 2
    17   17   18 1
    18   18   19 1
    19   19   20 1
    20   19   21 1
    21   21   22 1
    22   22   23 1
    23   17   23 1
    24   23   24 1
    25   23   25 1
    26   14   25 1
    27   25   26 1
    28   26   27 1
    29   27   28 1
    30   10   28 1
    31   13   28 1
    32   28   29 1
    33    1   30 1
    34    1   31 1
    35    1   32 1
    36    2   33 1
    37    3   34 1
    38    3   35 1
    39    3   36 1
    40    4   37 1
    41    5   38 1
    42    5   39 1
    43    5   40 1
    44    6   41 1
    45    7   42 1
    46    8   43 1
    47    9   44 1
    48    9   45 1
    49    9   46 1
    50   10   47 1
    51   11   48 1
    52   11   49 1
    53   12   50 1
    54   12   51 1
    55   13   52 1
    56   15   53 1
    57   16   54 1
    58   18   55 1
    59   18   56 1
    60   19   57 1
    61   20   58 1
    62   21   59 1
    63   21   60 1
    64   22   61 1
    65   22   62 1
    66   24   63 1
    67   24   64 1
    68   24   65 1
    69   25   66 1
    70   26   67 1
    71   26   68 1
    72   27   69 1
    73   27   70 1
    74   29   71 1
    75   29   72 1
    76   29   73 1
@<TRIPOS>MOLECULE
LIM
   46    45     0     0     0
SMALL
NO_CHARGES

@<TRIPOS>ATOM
      1 C1         -5.0142    0.1764    0.0000 C         1 <0>         0.0000
      2 C2         -4.2996   -0.2361    0.0000 CT        1 <0>         0.0000
      3 C3         -3.5851    0.1764    0.0000 C         1 <0>         0.0000
      4 C4         -2.8706   -0.2361    0.0000 CT        1 <0>         0.0000
      5 C5         -2.1561    0.1764    0.0000 CT        1 <0>         0.0000
      6 C6         -1.4415   -0.2361    0.0000 CT        1 <0>         0.0000
      7 C7         -0.7270    0.1764    0.0000 CT        1 <0>         0.0000
      8 C8         -0.0125   -0.2361    0.0000 CT        1 <0>         0.0000
      9 C9          0.7021    0.1764    0.0000 CT        1 <0>         0.0000
     10 C10         1.4166   -0.2361    0.0000 CT        1 <0>         0.0000
     11 C11         2.1311    0.1764    0.0000 CT        1 <0>         0.0000
     12 C12         2.8456   -0.2361    0.0000 CT        1 <0>         0.0000
     13 C13         3.5602    0.1764    0.0000 CT        1 <0>         0.0000
     14 C14         4.2747   -0.2361    0.0000 CT        1 <0>         0.0000
     15 C15         4.9892    0.1764    0.0000 CT        1 <0>         0.0000
     16 O1         -5.7286   -0.2361    0.0000 O         1 <0>         0.0000
     17 O2         -3.5851    1.0015    0.0000 O         1 <0>         0.0000
     18 O3         -5.0142    1.0015    0.0000 OH        1 <0>         0.0000
     19 H1         -4.2996   -0.2361    0.0000 HC        1 <0>         0.0000
     20 H2         -4.2996   -0.2361    0.0000 HC        1 <0>         0.0000
     21 H3         -2.8706   -0.2361    0.0000 HC        1 <0>         0.0000
     22 H4         -2.8706   -0.2361    0.0000 HC        1 <0>         0.0000
     23 H5         -2.1561    0.1764    0.0000 HC        1 <0>         0.0000
     24 H6         -2.1561    0.1764    0.0000 HC        1 <0>         0.0000
     25 H7         -1.4415   -0.2361    0.0000 HC        1 <0>         0.0000
     26 H8         -1.4415   -0.2361    0.0000 HC        1 <0>         0.0000
     27 H9         -0.7270    0.1764    0.0000 HC        1 <0>         0.0000
     28 H10        -0.7270    0.1764    0.0000 HC        1 <0>         0.0000
     29 H11        -0.0125   -0.2361    0.0000 HC        1 <0>         0.0000
     30 H12        -0.0125   -0.2361    0.0000 HC        1 <0>         0.0000
     31 H13         0.7021    0.1764    0.0000 HC        1 <0>         0.0000
     32 H14         0.7021    0.1764    0.0000 HC        1 <0>         0.0000
     33 H15         1.4166   -0.2361    0.0000 HC        1 <0>         0.0000
     34 H16         1.4166   -0.2361    0.0000 HC        1 <0>         0.0000
     35 H17         2.1311    0.1764    0.0000 HC        1 <0>         0.0000
     36 H18         2.1311    0.1764    0.0000 HC        1 <0>         0.0000
     37 H19         2.8456   -0.2361    0.0000 HC        1 <0>         0.0000
     38 H20         2.8456   -0.2361    0.0000 HC        1 <0>         0.0000
     39 H21         3.5602    0.1764    0.0000 HC        1 <0>         0.0000
     40 H22         3.5602    0.1764    0.0000 HC        1 <0>         0.0000
     41 H23         4.2747   -0.2361    0.0000 HC        1 <0>         0.0000
     42 H24         4.2747   -0.2361    0.0000 HC        1 <0>         0.0000
     43 H25         4.9892    0.1764    0.0000 HC        1 <0>         0.0000
     44 H26         4.9892    0.1764    0.0000 HC        1 <0>         0.0000
     45 H27         4.9892    0.1764    0.0000 HC        1 <0>         0.0000
     46 H28        -5.0142    1.0015    0.0000 HO        1 <0>         0.0000
@<TRIPOS>BOND
     1    1    2 1
     2    1   16 2
     3    1   18 1
     4    2    3 1
     5    3    4 1
     6    3   17 2
     7    4    5 1
     8    5    6 1
     9    6    7 1
    10    7    8 1
    11    8    9 1
    12    9   10 1
    13   10   11 1
    14   11   12 1
    15   12   13 1
    16   13   14 1
    17   14   15 1
    18    2   19 1
    19    2   20 1
    20    4   21 1
    21    4   22 1
    22    5   23 1
    23    5   24 1
    24    6   25 1
    25    6   26 1
    26    7   27 1
    27    7   28 1
    28    8   29 1
    29    8   30 1
    30    9   31 1
    31    9   32 1
    32   10   33 1
    33   10   34 1
    34   11   35 1
    35   11   36 1
    36   12   37 1
    37   12   38 1
    38   13   39 1
    39   13   40 1
    40   14   41 1
    41   14   42 1
    42   15   43 1
    43   15   44 1
    44   15   45 1
    45   18   46 1
@<TRIPOS>MOLECULE
*****
   27    27     0     0     0
SMALL
NO_CHARGES

@<TRIPOS>ATOM
      1 C1          2.3907    0.2063    0.0000 CT        1 <0>         0.0000
      2 O1          1.6763    0.6188    0.0000 OS        1 <0>         0.0000
      3 C2          0.9618    0.2063    0.0000 CT        1 <0>         0.0000
      4 O2          0.2473    0.6188    0.0000 OS        1 <0>         0.0000
      5 C3         -0.4672    0.2063    0.0000 CT        1 <0>         0.0000
      6 C4         -1.1816    0.6188    0.0000 CT        1 <0>         0.0000
      7 O3         -1.1816    1.4438    0.0000 OH        1 <0>         0.0000
      8 C5         -0.4672   -0.6187    0.0000 CT        1 <0>         0.0000
      9 O4         -1.1816   -1.0312    0.0000 OH        1 <0>         0.0000
     10 C6          0.2473   -1.0312    0.0000 CT        1 <0>         0.0000
     11 O5          0.2473   -1.8562    0.0000 OH        1 <0>         0.0000
     12 C7          0.9618   -0.6187    0.0000 CT        1 <0>         0.0000
     13 O6          1.6763   -1.0312    0.0000 OH        1 <0>         0.0000
     14 H1          2.3907    0.2063    0.0000 H1        1 <0>         0.0000
     15 H2          2.3907    0.2063    0.0000 H1        1 <0>         0.0000
     16 H3          2.3907    0.2063    0.0000 H1        1 <0>         0.0000
     17 H4          0.9618    0.2063    0.0000 H2        1 <0>         0.0000
     18 H5         -0.4672    0.2063    0.0000 H1        1 <0>         0.0000
     19 H6         -1.1816    0.6188    0.0000 H1        1 <0>         0.0000
     20 H7         -1.1816    0.6188    0.0000 H1        1 <0>         0.0000
     21 H8         -1.1816    1.4438    0.0000 HO        1 <0>         0.0000
     22 H9         -0.4672   -0.6187    0.0000 H1        1 <0>         0.0000
     23 H10        -1.1816   -1.0312    0.0000 HO        1 <0>         0.0000
     24 H11         0.2473   -1.0312    0.0000 H1        1 <0>         0.0000
     25 H12         0.2473   -1.8562    0.0000 HO        1 <0>         0.0000
     26 H13         0.9618   -0.6187    0.0000 H1        1 <0>         0.0000
     27 H14         1.6763   -1.0312    0.0000 HO        1 <0>         0.0000
@<TRIPOS>BOND
     1    1    2 1
     2    2    3 1
     3    3    4 1
     4    4    5 1
     5    5    6 1
     6    6    7 1
     7    5    8 1
     8    8    9 1
     9    8   10 1
    10   10   11 1
    11   10   12 1
    12    3   12 1
    13   12   13 1
    14    1   14 1
    15    1   15 1
    16    1   16 1
    17    3   17 1
    18    5   18 1
    19    6   19 1
    20    6   20 1
    21    7   21 1
    22    8   22 1
    23    9   23 1
    24   10   24 1
    25   11   25 1
    26   12   26 1
    27   13   27 1
@<TRIPOS>MOLECULE
5PV
   27    27     0     0     0
SMALL
NO_CHARGES

@<TRIPOS>ATOM
      1 C1         -1.0563   -0.0459    0.0000 CA        1 <0>         0.0000
      2 C2         -1.7708   -0.4584    0.0000 CA        1 <0>         0.0000
      3 C3         -2.4853   -0.0459    0.0000 CA        1 <0>         0.0000
      4 C4         -2.4853    0.7791    0.0000 CA        1 <0>         0.0000
      5 C5         -1.7708    1.1916    0.0000 CA        1 <0>         0.0000
      6 C6         -1.0563    0.7791    0.0000 CA        1 <0>         0.0000
      7 C7         -0.3419   -0.4584    0.0000 CT        1 <0>         0.0000
      8 C8          0.3726   -0.0459    0.0000 CT        1 <0>         0.0000
      9 C9          1.0871   -0.4584    0.0000 CT        1 <0>         0.0000
     10 C10         1.8015   -0.0459    0.0000 CT        1 <0>         0.0000
     11 C11         2.5160   -0.4584    0.0000 C         1 <0>         0.0000
     12 O1          3.2305   -0.0459    0.0000 OH        1 <0>         0.0000
     13 O2          2.5160   -1.2834    0.0000 O         1 <0>         0.0000
     14 H1         -1.7708   -0.4584    0.0000 HA        1 <0>         0.0000
     15 H2         -2.4853   -0.0459    0.0000 HA        1 <0>         0.0000
     16 H3         -2.4853    0.7791    0.0000 HA        1 <0>         0.0000
     17 H4         -1.7708    1.1916    0.0000 HA        1 <0>         0.0000
     18 H5         -1.0563    0.7791    0.0000 HA        1 <0>         0.0000
     19 H6         -0.3419   -0.4584    0.0000 HC        1 <0>         0.0000
     20 H7         -0.3419   -0.4584    0.0000 HC        1 <0>         0.0000
     21 H8          0.3726   -0.0459    0.0000 HC        1 <0>         0.0000
     22 H9          0.3726   -0.0459    0.0000 HC        1 <0>         0.0000
     23 H10         1.0871   -0.4584    0.0000 HC        1 <0>         0.0000
     24 H11         1.0871   -0.4584    0.0000 HC        1 <0>         0.0000
     25 H12         1.8015   -0.0459    0.0000 HC        1 <0>         0.0000
     26 H13         1.8015   -0.0459    0.0000 HC        1 <0>         0.0000
     27 H14         3.2305   -0.0459    0.0000 HO        1 <0>         0.0000
@<TRIPOS>BOND
     1    1    2 ar
     2    1    6 ar
     3    1    7 1
     4    2    3 ar
     5    3    4 ar
     6    4    5 ar
     7    5    6 ar
     8    7    8 1
     9    8    9 1
    10    9   10 1
    11   10   11 1
    12   11   12 1
    13   11   13 2
    14    2   14 1
    15    3   15 1
    16    4   16 1
    17    5   17 1
    18    6   18 1
    19    7   19 1
    20    7   20 1
    21    8   21 1
    22    8   22 1
    23    9   23 1
    24    9   24 1
    25   10   25 1
    26   10   26 1
    27   12   27 1
@<TRIPOS>MOLECULE
*****
   19    19     0     0     0
SMALL
NO_CHARGES

@<TRIPOS>ATOM
      1 C1          2.1434    1.2375    0.0000 CT        1 <0>         0.0000
      2 C2          1.4289    0.8250    0.0000 CA        1 <0>         0.0000
      3 C3          1.4289    0.0000    0.0000 CA        1 <0>         0.0000
      4 C4          0.7145   -0.4125    0.0000 CA        1 <0>         0.0000
      5 C5          0.0000    0.0000    0.0000 CA        1 <0>         0.0000
      6 O1         -0.7145   -0.4125    0.0000 OH        1 <0>         0.0000
      7 C6          0.0000    0.8250    0.0000 CA        1 <0>         0.0000
      8 C7          0.7145    1.2375    0.0000 CA        1 <0>         0.0000
      9 C8          0.7145    2.0625    0.0000 CT        1 <0>         0.0000
     10 H1          2.1434    1.2375    0.0000 HC        1 <0>         0.0000
     11 H2          2.1434    1.2375    0.0000 HC        1 <0>         0.0000
     12 H3          2.1434    1.2375    0.0000 HC        1 <0>         0.0000
     13 H4          1.4289    0.0000    0.0000 HA        1 <0>         0.0000
     14 H5          0.7145   -0.4125    0.0000 HA        1 <0>         0.0000
     15 H6         -0.7145   -0.4125    0.0000 HO        1 <0>         0.0000
     16 H7          0.0000    0.8250    0.0000 HA        1 <0>         0.0000
     17 H8          0.7145    2.0625    0.0000 HC        1 <0>         0.0000
     18 H9          0.7145    2.0625    0.0000 HC        1 <0>         0.0000
     19 H10         0.7145    2.0625    0.0000 HC        1 <0>         0.0000
@<TRIPOS>BOND
     1    1    2 1
     2    2    3 ar
     3    3    4 ar
     4    4    5 ar
     5    5    6 1
     6    5    7 ar
     7    7    8 ar
     8    2    8 ar
     9    8    9 1
    10    1   10 1
    11    1   11 1
    12    1   12 1
    13    3   13 1
    14    4   14 1
    15    6   15 1
    16    7   16 1
    17    9   17 1
    18    9   18 1
    19    9   19 1
@<TRIPOS>MOLECULE
*****
   23    23     0     0     0
SMALL
NO_CHARGES

@<TRIPOS>ATOM
      1 C1         -0.8444    1.4625    0.0000 CT        1 <0>         0.0000
      2 C2         -0.1299    1.0500    0.0000 CT        1 <0>         0.0000
      3 O1          0.5846    1.4625    0.0000 OS        1 <0>         0.0000
      4 C3          1.2990    1.0500    0.0000 CT        1 <0>         0.0000
      5 O2          2.0135    1.4625    0.0000 OH        1 <0>         0.0000
      6 C4          1.2990    0.2250    0.0000 CT        1 <0>         0.0000
      7 O3          2.0135   -0.1875    0.0000 OH        1 <0>         0.0000
      8 C5          0.5845   -0.1875    0.0000 CT        1 <0>         0.0000
      9 O4          0.5845   -1.0125    0.0000 OH        1 <0>         0.0000
     10 C6         -0.1299    0.2251    0.0000 CT        1 <0>         0.0000
     11 O5         -0.8444   -0.1874    0.0000 OH        1 <0>         0.0000
     12 H1         -0.8444    1.4625    0.0000 HC        1 <0>         0.0000
     13 H2         -0.8444    1.4625    0.0000 HC        1 <0>         0.0000
     14 H3         -0.8444    1.4625    0.0000 HC        1 <0>         0.0000
     15 H4         -0.1299    1.0500    0.0000 H1        1 <0>         0.0000
     16 H5          1.2990    1.0500    0.0000 H2        1 <0>         0.0000
     17 H6          2.0135    1.4625    0.0000 HO        1 <0>         0.0000
     18 H7          1.2990    0.2250    0.0000 H1        1 <0>         0.0000
     19 H8          2.0135   -0.1875    0.0000 HO        1 <0>         0.0000
     20 H9          0.5845   -0.1875    0.0000 H1        1 <0>         0.0000
     21 H10         0.5845   -1.0125    0.0000 HO        1 <0>         0.0000
     22 H11        -0.1299    0.2251    0.0000 H1        1 <0>         0.0000
     23 H12        -0.8444   -0.1874    0.0000 HO        1 <0>         0.0000
@<TRIPOS>BOND
     1    1    2 1
     2    2    3 1
     3    3    4 1
     4    4    5 1
     5    4    6 1
     6    6    7 1
     7    6    8 1
     8    8    9 1
     9    8   10 1
    10    2   10 1
    11   10   11 1
    12    1   12 1
    13    1   13 1
    14    1   14 1
    15    2   15 1
    16    4   16 1
    17    5   17 1
    18    6   18 1
    19    7   19 1
    20    8   20 1
    21    9   21 1
    22   10   22 1
    23   11   23 1
@<TRIPOS>MOLECULE
*****
   42    45     0     0     0
SMALL
NO_CHARGES

@<TRIPOS>ATOM
      1 C1          5.7158   -2.4750    0.0000 CT        1 <0>         0.0000
      2 O1          5.7158   -1.6500    0.0000 OS        1 <0>         0.0000
      3 C2          5.0013   -1.2375    0.0000 C         1 <0>         0.0000
      4 O2          4.2868   -1.6500    0.0000 O         1 <0>         0.0000
      5 C3          5.0013   -0.4125    0.0000 CM        1 <0>         0.0000
      6 C4          5.7158    0.0000    0.0000 CM        1 <0>         0.0000
      7 C5          6.4302   -0.4125    0.0000 CT        1 <0>         0.0000
      8 C6          5.7158    0.8250    0.0000 CT        1 <0>         0.0000
      9 C7          5.0013    1.2375    0.0000 C         1 <0>         0.0000
     10 O3          5.0013    2.0625    0.0000 O         1 <0>         0.0000
     11 C8          4.2868    0.8250    0.0000 CA        1 <0>         0.0000
     12 C9          3.5724    1.2375    0.0000 CA        1 <0>         0.0000
     13 O4          3.5724    2.0625    0.0000 OH        1 <0>         0.0000
     14 C10         2.8579    0.8250    0.0000 CB        1 <0>         0.0000
     15 C11         2.8579    0.0000    0.0000 CB        1 <0>         0.0000
     16 C12         3.5724   -0.4125    0.0000 CA        1 <0>         0.0000
     17 C13         4.2868    0.0000    0.0000 CA        1 <0>         0.0000
     18 C14         2.1434   -0.4125    0.0000 C         1 <0>         0.0000
     19 O5          2.1434   -1.2375    0.0000 O         1 <0>         0.0000
     20 C15         1.4289    0.0000    0.0000 CB        1 <0>         0.0000
     21 C16         0.7145   -0.4125    0.0000 CA        1 <0>         0.0000
     22 C17         0.0000    0.0000    0.0000 CA        1 <0>         0.0000
     23 C18         0.0000    0.8250    0.0000 CA        1 <0>         0.0000
     24 C19         0.7145    1.2375    0.0000 CA        1 <0>         0.0000
     25 O6          0.7145    2.0625    0.0000 OH        1 <0>         0.0000
     26 C20         1.4289    0.8250    0.0000 CB        1 <0>         0.0000
     27 C21         2.1434    1.2375    0.0000 C         1 <0>         0.0000
     28 O7          2.1434    2.0625    0.0000 O         1 <0>         0.0000
     29 H1          5.7158   -2.4750    0.0000 H1        1 <0>         0.0000
     30 H2          5.7158   -2.4750    0.0000 H1        1 <0>         0.0000
     31 H3          5.7158   -2.4750    0.0000 H1        1 <0>         0.0000
     32 H4          6.4302   -0.4125    0.0000 HC        1 <0>         0.0000
     33 H5          6.4302   -0.4125    0.0000 HC        1 <0>         0.0000
     34 H6          6.4302   -0.4125    0.0000 HC        1 <0>         0.0000
     35 H7          5.7158    0.8250    0.0000 HC        1 <0>         0.0000
     36 H8          5.7158    0.8250    0.0000 HC        1 <0>         0.0000
     37 H9          3.5724    2.0625    0.0000 HO        1 <0>         0.0000
     38 H10         3.5724   -0.4125    0.0000 HA        1 <0>         0.0000
     39 H11         0.7145   -0.4125    0.0000 HA        1 <0>         0.0000
     40 H12         0.0000    0.0000    0.0000 HA        1 <0>         0.0000
     41 H13         0.0000    0.8250    0.0000 HA        1 <0>         0.0000
     42 H14         0.7145    2.0625    0.0000 HO        1 <0>         0.0000
@<TRIPOS>BOND
     1    1    2 1
     2    2    3 1
     3    3    4 2
     4    3    5 1
     5    5    6 2
     6    6    7 1
     7    6    8 1
     8    8    9 1
     9    9   10 2
    10    9   11 1
    11   11   12 ar
    12   12   13 1
    13   12   14 ar
    14   14   15 ar
    15   15   16 ar
    16   16   17 ar
    17    5   17 1
    18   11   17 ar
    19   15   18 1
    20   18   19 2
    21   18   20 1
    22   20   21 ar
    23   21   22 ar
    24   22   23 ar
    25   23   24 ar
    26   24   25 1
    27   24   26 ar
    28   20   26 ar
    29   26   27 1
    30   14   27 1
    31   27   28 2
    32    1   29 1
    33    1   30 1
    34    1   31 1
    35    7   32 1
    36    7   33 1
    37    7   34 1
    38    8   35 1
    39    8   36 1
    40   13   37 1
    41   16   38 1
    42   21   39 1
    43   22   40 1
    44   23   41 1
    45   25   42 1
@<TRIPOS>MOLECULE
HC4
   20    20     0     0     0
SMALL
NO_CHARGES

@<TRIPOS>ATOM
      1 C1          1.5326    1.5193    0.0000 C         1 <0>         0.0000
      2 O1          1.5326    2.3443    0.0000 O         1 <0>         0.0000
      3 O2          2.2471    1.1068    0.0000 OH        1 <0>         0.0000
      4 C2          0.8181    1.1068    0.0000 CM        1 <0>         0.0000
      5 C3          0.8181    0.2818    0.0000 CM        1 <0>         0.0000
      6 C4          0.1037   -0.1307    0.0000 CA        1 <0>         0.0000
      7 C5          0.1037   -0.9557    0.0000 CA        1 <0>         0.0000
      8 C6         -0.6108   -1.3682    0.0000 CA        1 <0>         0.0000
      9 C7         -1.3253   -0.9557    0.0000 CA        1 <0>         0.0000
     10 C8         -1.3253   -0.1307    0.0000 CA        1 <0>         0.0000
     11 C9         -0.6108    0.2818    0.0000 CA        1 <0>         0.0000
     12 O3         -2.0398   -1.3682    0.0000 OH        1 <0>         0.0000
     13 H1          2.2471    1.1068    0.0000 HO        1 <0>         0.0000
     14 H2          0.8181    1.1068    0.0000 HA        1 <0>         0.0000
     15 H3          0.8181    0.2818    0.0000 HA        1 <0>         0.0000
     16 H4          0.1037   -0.9557    0.0000 HA        1 <0>         0.0000
     17 H5         -0.6108   -1.3682    0.0000 HA        1 <0>         0.0000
     18 H6         -1.3253   -0.1307    0.0000 HA        1 <0>         0.0000
     19 H7         -0.6108    0.2818    0.0000 HA        1 <0>         0.0000
     20 H8         -2.0398   -1.3682    0.0000 HO        1 <0>         0.0000
@<TRIPOS>BOND
     1    1    2 2
     2    1    3 1
     3    1    4 1
     4    4    5 2
     5    5    6 1
     6    6    7 ar
     7    6   11 ar
     8    7    8 ar
     9    8    9 ar
    10    9   10 ar
    11    9   12 1
    12   10   11 ar
    13    3   13 1
    14    4   14 1
    15    5   15 1
    16    7   16 1
    17    8   17 1
    18   10   18 1
    19   11   19 1
    20   12   20 1
@<TRIPOS>MOLECULE
DEB
   65    65     0     0     0
SMALL
NO_CHARGES

@<TRIPOS>ATOM
      1 C1          1.4084    0.8918    0.0000 C         1 <0>         0.0000
      2 C2          2.0029    0.3197    0.0000 CT        1 <0>         0.0000
      3 C3          1.8047   -0.4811    0.0000 CT        1 <0>         0.0000
      4 C4          1.0121   -0.7099    0.0000 CT        1 <0>         0.0000
      5 C5          0.8139   -1.5108    0.0000 CT        1 <0>         0.0000
      6 C6          0.0213   -1.7396    0.0000 CT        1 <0>         0.0000
      7 C7         -0.5732   -1.1676    0.0000 CT        1 <0>         0.0000
      8 C8         -1.3658   -1.3964    0.0000 CT        1 <0>         0.0000
      9 C9         -1.9603   -0.8243    0.0000 C         1 <0>         0.0000
     10 C10        -1.7621   -0.0235    0.0000 CT        1 <0>         0.0000
     11 C11        -0.9695    0.2053    0.0000 CT        1 <0>         0.0000
     12 C12        -0.7713    1.0062    0.0000 CT        1 <0>         0.0000
     13 C13         0.0213    1.2350    0.0000 CT        1 <0>         0.0000
     14 C14         0.2195    2.0358    0.0000 CT        1 <0>         0.0000
     15 C15         1.0121    2.2646    0.0000 CT        1 <0>         0.0000
     16 O1          0.6158    0.6630    0.0000 OS        1 <0>         0.0000
     17 O2          1.6066    1.6926    0.0000 O         1 <0>         0.0000
     18 C16         2.7955    0.5485    0.0000 CT        1 <0>         0.0000
     19 O3          2.3992   -1.0532    0.0000 OH        1 <0>         0.0000
     20 C17         0.4176   -0.1379    0.0000 CT        1 <0>         0.0000
     21 O4          1.4084   -2.0828    0.0000 OH        1 <0>         0.0000
     22 C18        -0.1769   -2.5404    0.0000 CT        1 <0>         0.0000
     23 C19        -1.5640   -2.1972    0.0000 CT        1 <0>         0.0000
     24 O5         -2.7529   -1.0532    0.0000 O         1 <0>         0.0000
     25 C20        -2.3566    0.5485    0.0000 CT        1 <0>         0.0000
     26 O6         -0.3750   -0.3667    0.0000 OH        1 <0>         0.0000
     27 C21        -1.3658    1.5782    0.0000 CT        1 <0>         0.0000
     28 H1          2.1431    0.8866    0.0000 HC        1 <0>         0.0000
     29 H2          2.3657   -0.3192    0.0000 H1        1 <0>         0.0000
     30 H3          1.1523   -0.1431    0.0000 HC        1 <0>         0.0000
     31 H4          1.3749   -1.3488    0.0000 H1        1 <0>         0.0000
     32 H5          0.4421   -2.1445    0.0000 HC        1 <0>         0.0000
     33 H6         -0.9451   -1.8013    0.0000 HC        1 <0>         0.0000
     34 H7         -2.3232   -0.1854    0.0000 HC        1 <0>         0.0000
     35 H8         -1.1098   -0.3615    0.0000 H1        1 <0>         0.0000
     36 H9         -1.3324    0.8442    0.0000 HC        1 <0>         0.0000
     37 H10        -0.3995    1.6399    0.0000 H1        1 <0>         0.0000
     38 H11        -0.5732   -1.1676    0.0000 HC        1 <0>         0.0000
     39 H12        -0.5732   -1.1676    0.0000 HC        1 <0>         0.0000
     40 H13         0.2195    2.0358    0.0000 HC        1 <0>         0.0000
     41 H14         0.2195    2.0358    0.0000 HC        1 <0>         0.0000
     42 H15         1.0121    2.2646    0.0000 HC        1 <0>         0.0000
     43 H16         1.0121    2.2646    0.0000 HC        1 <0>         0.0000
     44 H17         1.0121    2.2646    0.0000 HC        1 <0>         0.0000
     45 H18         2.7955    0.5485    0.0000 HC        1 <0>         0.0000
     46 H19         2.7955    0.5485    0.0000 HC        1 <0>         0.0000
     47 H20         2.7955    0.5485    0.0000 HC        1 <0>         0.0000
     48 H21         2.3992   -1.0532    0.0000 HO        1 <0>         0.0000
     49 H22         0.4176   -0.1379    0.0000 HC        1 <0>         0.0000
     50 H23         0.4176   -0.1379    0.0000 HC        1 <0>         0.0000
     51 H24         0.4176   -0.1379    0.0000 HC        1 <0>         0.0000
     52 H25         1.4084   -2.0828    0.0000 HO        1 <0>         0.0000
     53 H26        -0.1769   -2.5404    0.0000 HC        1 <0>         0.0000
     54 H27        -0.1769   -2.5404    0.0000 HC        1 <0>         0.0000
     55 H28        -0.1769   -2.5404    0.0000 HC        1 <0>         0.0000
     56 H29        -1.5640   -2.1972    0.0000 HC        1 <0>         0.0000
     57 H30        -1.5640   -2.1972    0.0000 HC        1 <0>         0.0000
     58 H31        -1.5640   -2.1972    0.0000 HC        1 <0>         0.0000
     59 H32        -2.3566    0.5485    0.0000 HC        1 <0>         0.0000
     60 H33        -2.3566    0.5485    0.0000 HC        1 <0>         0.0000
     61 H34        -2.3566    0.5485    0.0000 HC        1 <0>         0.0000
     62 H35        -0.3750   -0.3667    0.0000 HO        1 <0>         0.0000
     63 H36        -1.3658    1.5782    0.0000 HC        1 <0>         0.0000
     64 H37        -1.3658    1.5782    0.0000 HC        1 <0>         0.0000
     65 H38        -1.3658    1.5782    0.0000 HC        1 <0>         0.0000
@<TRIPOS>BOND
     1    1    2 1
     2    1   16 1
     3    1   17 2
     4    2    3 1
     5    2   18 1
     6    2   28 1
     7    3    4 1
     8    3   19 1
     9    3   29 1
    10    4    5 1
    11    4   20 1
    12    4   30 1
    13    5    6 1
    14    5   21 1
    15    5   31 1
    16    6    7 1
    17    6   22 1
    18    6   32 1
    19    7    8 1
    20    8    9 1
    21    8   23 1
    22    8   33 1
    23    9   10 1
    24    9   24 2
    25   10   11 1
    26   10   25 1
    27   10   34 1
    28   11   12 1
    29   11   26 1
    30   11   35 1
    31   12   13 1
    32   12   27 1
    33   12   36 1
    34   13   14 1
    35   13   16 1
    36   13   37 1
    37   14   15 1
    38    7   38 1
    39    7   39 1
    40   14   40 1
    41   14   41 1
    42   15   42 1
    43   15   43 1
    44   15   44 1
    45   18   45 1
    46   18   46 1
    47   18   47 1
    48   19   48 1
    49   20   49 1
    50   20   50 1
    51   20   51 1
    52   21   52 1
    53   22   53 1
    54   22   54 1
    55   22   55 1
    56   23   56 1
    57   23   57 1
    58   23   58 1
    59   25   59 1
    60   25   60 1
    61   25   61 1
    62   26   62 1
    63   27   63 1
    64   27   64 1
    65   27   65 1
@<TRIPOS>MOLECULE
*****
   24    23     0     0     0
SMALL
NO_CHARGES

@<TRIPOS>ATOM
      1 C1          4.8631    0.1118    0.0000 CT        1 <0>         0.0000
      2 C2          5.0612    0.9126    0.0000 CT        1 <0>         0.0000
      3 O1          5.2594    1.7135    0.0000 OH        1 <0>         0.0000
      4 C3          4.2604    1.1108    0.0000 CT        1 <0>         0.0000
      5 C4          3.6883    0.5163    0.0000 CT        1 <0>         0.0000
      6 C5          2.8875    0.7145    0.0000 C         1 <0>         0.0000
      7 O2          2.3155    0.1200    0.0000 OH        1 <0>         0.0000
      8 O3          2.6587    1.5071    0.0000 O         1 <0>         0.0000
      9 C6          4.0316    1.9034    0.0000 C         1 <0>         0.0000
     10 O4          3.2307    2.1016    0.0000 OH        1 <0>         0.0000
     11 O5          4.6036    2.4979    0.0000 O         1 <0>         0.0000
     12 C7          5.8621    0.7145    0.0000 C         1 <0>         0.0000
     13 O6          6.4341    1.3089    0.0000 OH        1 <0>         0.0000
     14 O7          6.0909   -0.0782    0.0000 O         1 <0>         0.0000
     15 H1          4.8631    0.1118    0.0000 HC        1 <0>         0.0000
     16 H2          4.8631    0.1118    0.0000 HC        1 <0>         0.0000
     17 H3          4.8631    0.1118    0.0000 HC        1 <0>         0.0000
     18 H4          5.2594    1.7135    0.0000 HO        1 <0>         0.0000
     19 H5          4.2604    1.1108    0.0000 HC        1 <0>         0.0000
     20 H6          3.6883    0.5163    0.0000 HC        1 <0>         0.0000
     21 H7          3.6883    0.5163    0.0000 HC        1 <0>         0.0000
     22 H8          2.3155    0.1200    0.0000 HO        1 <0>         0.0000
     23 H9          3.2307    2.1016    0.0000 HO        1 <0>         0.0000
     24 H10         6.4341    1.3089    0.0000 HO        1 <0>         0.0000
@<TRIPOS>BOND
     1    1    2 1
     2    2    3 1
     3    2    4 1
     4    4    5 1
     5    5    6 1
     6    6    7 1
     7    6    8 2
     8    4    9 1
     9    9   10 1
    10    9   11 2
    11    2   12 1
    12   12   13 1
    13   12   14 2
    14    1   15 1
    15    1   16 1
    16    1   17 1
    17    3   18 1
    18    4   19 1
    19    5   20 1
    20    5   21 1
    21    7   22 1
    22   10   23 1
    23   13   24 1
@<TRIPOS>MOLECULE
*****
   16    15     0     0     0
SMALL
NO_CHARGES

@<TRIPOS>ATOM
      1 C1          1.2375    2.1434    0.0000 CT        1 <0>         0.0000
      2 C2          0.8250    1.4289    0.0000 CT        1 <0>         0.0000
      3 C3          0.0000    1.4289    0.0000 CT        1 <0>         0.0000
      4 C4          1.2375    0.7145    0.0000 C         1 <0>         0.0000
      5 O1          2.0625    0.7145    0.0000 O         1 <0>         0.0000
      6 C5          0.8250    0.0000    0.0000 C         1 <0>         0.0000
      7 O2          1.2375   -0.7145    0.0000 OH        1 <0>         0.0000
      8 O3          0.0000    0.0000    0.0000 O         1 <0>         0.0000
      9 H1          1.2375    2.1434    0.0000 HC        1 <0>         0.0000
     10 H2          1.2375    2.1434    0.0000 HC        1 <0>         0.0000
     11 H3          1.2375    2.1434    0.0000 HC        1 <0>         0.0000
     12 H4          0.8250    1.4289    0.0000 HC        1 <0>         0.0000
     13 H5          0.0000    1.4289    0.0000 HC        1 <0>         0.0000
     14 H6          0.0000    1.4289    0.0000 HC        1 <0>         0.0000
     15 H7          0.0000    1.4289    0.0000 HC        1 <0>         0.0000
     16 H8          1.2375   -0.7145    0.0000 HO        1 <0>         0.0000
@<TRIPOS>BOND
     1    1    2 1
     2    2    3 1
     3    2    4 1
     4    4    5 2
     5    4    6 1
     6    6    7 1
     7    6    8 2
     8    1    9 1
     9    1   10 1
    10    1   11 1
    11    2   12 1
    12    3   13 1
    13    3   14 1
    14    3   15 1
    15    7   16 1
@<TRIPOS>MOLECULE
*****
   14    13     0     0     0
SMALL
NO_CHARGES

@<TRIPOS>ATOM
      1 O1          2.4750   -1.4289    0.0000 OH        1 <0>         0.0000
      2 C1          2.0625   -0.7145    0.0000 CT        1 <0>         0.0000
      3 C2          1.2375   -0.7145    0.0000 CT        1 <0>         0.0000
      4 O2          0.8250   -1.4289    0.0000 OH        1 <0>         0.0000
      5 C3          0.8250    0.0000    0.0000 CT        1 <0>         0.0000
      6 O3          0.0000    0.0000    0.0000 OH        1 <0>         0.0000
      7 H1          2.4750   -1.4289    0.0000 HO        1 <0>         0.0000
      8 H2          2.0625   -0.7145    0.0000 H1        1 <0>         0.0000
      9 H3          2.0625   -0.7145    0.0000 H1        1 <0>         0.0000
     10 H4          1.2375   -0.7145    0.0000 H1        1 <0>         0.0000
     11 H5          0.8250   -1.4289    0.0000 HO        1 <0>         0.0000
     12 H6          0.8250    0.0000    0.0000 H1        1 <0>         0.0000
     13 H7          0.8250    0.0000    0.0000 H1        1 <0>         0.0000
     14 H8          0.0000    0.0000    0.0000 HO        1 <0>         0.0000
@<TRIPOS>BOND
     1    1    2 1
     2    2    3 1
     3    3    4 1
     4    3    5 1
     5    5    6 1
     6    1    7 1
     7    2    8 1
     8    2    9 1
     9    3   10 1
    10    4   11 1
    11    5   12 1
    12    5   13 1
    13    6   14 1
@<TRIPOS>MOLECULE
*****
   26    25     0     0     0
SMALL
NO_CHARGES

@<TRIPOS>ATOM
      1 C1          1.0461    1.4289    0.0000 CT        1 <0>         0.0000
      2 C2          1.7605    1.8414    0.0000 CT        1 <0>         0.0000
      3 C3          2.4750    1.4289    0.0000 CT        1 <0>         0.0000
      4 C4          3.1895    1.8414    0.0000 CT        1 <0>         0.0000
      5 C5          3.9039    1.4289    0.0000 CT        1 <0>         0.0000
      6 O1          3.9039    0.6039    0.0000 OH        1 <0>         0.0000
      7 C6          4.6184    1.8414    0.0000 CT        1 <0>         0.0000
      8 O2          4.6184    2.6664    0.0000 OH        1 <0>         0.0000
      9 C7          5.3329    1.4289    0.0000 CT        1 <0>         0.0000
     10 O3          6.0474    1.8414    0.0000 OH        1 <0>         0.0000
     11 H1          1.0461    1.4289    0.0000 HC        1 <0>         0.0000
     12 H2          1.0461    1.4289    0.0000 HC        1 <0>         0.0000
     13 H3          1.0461    1.4289    0.0000 HC        1 <0>         0.0000
     14 H4          1.7605    1.8414    0.0000 HC        1 <0>         0.0000
     15 H5          1.7605    1.8414    0.0000 HC        1 <0>         0.0000
     16 H6          2.4750    1.4289    0.0000 HC        1 <0>         0.0000
     17 H7          2.4750    1.4289    0.0000 HC        1 <0>         0.0000
     18 H8          3.1895    1.8414    0.0000 HC        1 <0>         0.0000
     19 H9          3.1895    1.8414    0.0000 HC        1 <0>         0.0000
     20 H10         3.9039    1.4289    0.0000 H1        1 <0>         0.0000
     21 H11         3.9039    0.6039    0.0000 HO        1 <0>         0.0000
     22 H12         4.6184    1.8414    0.0000 H1        1 <0>         0.0000
     23 H13         4.6184    2.6664    0.0000 HO        1 <0>         0.0000
     24 H14         5.3329    1.4289    0.0000 H1        1 <0>         0.0000
     25 H15         5.3329    1.4289    0.0000 H1        1 <0>         0.0000
     26 H16         6.0474    1.8414    0.0000 HO        1 <0>         0.0000
@<TRIPOS>BOND
     1    1    2 1
     2    2    3 1
     3    3    4 1
     4    4    5 1
     5    5    6 1
     6    5    7 1
     7    7    8 1
     8    7    9 1
     9    9   10 1
    10    1   11 1
    11    1   12 1
    12    1   13 1
    13    2   14 1
    14    2   15 1
    15    3   16 1
    16    3   17 1
    17    4   18 1
    18    4   19 1
    19    5   20 1
    20    6   21 1
    21    7   22 1
    22    8   23 1
    23    9   24 1
    24    9   25 1
    25   10   26 1
@<TRIPOS>MOLECULE
791
   21    21     0     0     0
SMALL
NO_CHARGES

@<TRIPOS>ATOM
      1 C1          1.3935    0.8384    0.0000 CA        1 <0>         0.0000
      2 C2          1.3935    0.0134    0.0000 CA        1 <0>         0.0000
      3 C3          0.6790   -0.3991    0.0000 CA        1 <0>         0.0000
      4 C4         -0.0355    0.0134    0.0000 CA        1 <0>         0.0000
      5 C5         -0.0355    0.8384    0.0000 CA        1 <0>         0.0000
      6 C6          0.6790    1.2509    0.0000 CA        1 <0>         0.0000
      7 C7         -0.7499   -0.3991    0.0000 CT        1 <0>         0.0000
      8 C8         -1.4644    0.0134    0.0000 C         1 <0>         0.0000
      9 C9         -0.7499   -1.2241    0.0000 C         1 <0>         0.0000
     10 O1         -2.1789   -0.3991    0.0000 OH        1 <0>         0.0000
     11 O2         -1.4644    0.8384    0.0000 O         1 <0>         0.0000
     12 O3         -1.4644   -1.6366    0.0000 OH        1 <0>         0.0000
     13 O4         -0.0355   -1.6366    0.0000 O         1 <0>         0.0000
     14 H1          1.3935    0.8384    0.0000 HA        1 <0>         0.0000
     15 H2          1.3935    0.0134    0.0000 HA        1 <0>         0.0000
     16 H3          0.6790   -0.3991    0.0000 HA        1 <0>         0.0000
     17 H4         -0.0355    0.8384    0.0000 HA        1 <0>         0.0000
     18 H5          0.6790    1.2509    0.0000 HA        1 <0>         0.0000
     19 H6         -0.7499   -0.3991    0.0000 HC        1 <0>         0.0000
     20 H7         -2.1789   -0.3991    0.0000 HO        1 <0>         0.0000
     21 H8         -1.4644   -1.6366    0.0000 HO        1 <0>         0.0000
@<TRIPOS>BOND
     1    1    2 ar
     2    1    6 ar
     3    2    3 ar
     4    3    4 ar
     5    4    5 ar
     6    4    7 1
     7    5    6 ar
     8    7    8 1
     9    7    9 1
    10    8   10 1
    11    8   11 2
    12    9   12 1
    13    9   13 2
    14    1   14 1
    15    2   15 1
    16    3   16 1
    17    5   17 1
    18    6   18 1
    19    7   19 1
    20   10   20 1
    21   12   21 1
@<TRIPOS>MOLECULE
DEM
   37    36     0     0     0
SMALL
NO_CHARGES

@<TRIPOS>ATOM
      1 C1         -3.9449    0.1906    0.0000 CT        1 <0>         0.0000
      2 C2         -2.5159    0.1906    0.0000 CT        1 <0>         0.0000
      3 C3         -1.8013   -0.2219    0.0000 CT        1 <0>         0.0000
      4 C4         -1.0868    0.1906    0.0000 CT        1 <0>         0.0000
      5 C5         -0.3723   -0.2219    0.0000 CT        1 <0>         0.0000
      6 C6          0.3422    0.1906    0.0000 CT        1 <0>         0.0000
      7 C7          1.0568   -0.2219    0.0000 CT        1 <0>         0.0000
      8 C8          1.7713    0.1906    0.0000 CT        1 <0>         0.0000
      9 C9          2.4858   -0.2219    0.0000 CT        1 <0>         0.0000
     10 C10         3.2003    0.1906    0.0000 CT        1 <0>         0.0000
     11 C11         3.9149   -0.2219    0.0000 CT        1 <0>         0.0000
     12 O1         -3.2303   -0.2219    0.0000 OS        1 <0>         0.0000
     13 O2         -4.6594   -0.2219    0.0000 OH        1 <0>         0.0000
     14 H1         -3.9449    0.1906    0.0000 H2        1 <0>         0.0000
     15 H2         -3.9449    0.1906    0.0000 H2        1 <0>         0.0000
     16 H3         -2.5159    0.1906    0.0000 H1        1 <0>         0.0000
     17 H4         -2.5159    0.1906    0.0000 H1        1 <0>         0.0000
     18 H5         -1.8013   -0.2219    0.0000 HC        1 <0>         0.0000
     19 H6         -1.8013   -0.2219    0.0000 HC        1 <0>         0.0000
     20 H7         -1.0868    0.1906    0.0000 HC        1 <0>         0.0000
     21 H8         -1.0868    0.1906    0.0000 HC        1 <0>         0.0000
     22 H9         -0.3723   -0.2219    0.0000 HC        1 <0>         0.0000
     23 H10        -0.3723   -0.2219    0.0000 HC        1 <0>         0.0000
     24 H11         0.3422    0.1906    0.0000 HC        1 <0>         0.0000
     25 H12         0.3422    0.1906    0.0000 HC        1 <0>         0.0000
     26 H13         1.0568   -0.2219    0.0000 HC        1 <0>         0.0000
     27 H14         1.0568   -0.2219    0.0000 HC        1 <0>         0.0000
     28 H15         1.7713    0.1906    0.0000 HC        1 <0>         0.0000
     29 H16         1.7713    0.1906    0.0000 HC        1 <0>         0.0000
     30 H17         2.4858   -0.2219    0.0000 HC        1 <0>         0.0000
     31 H18         2.4858   -0.2219    0.0000 HC        1 <0>         0.0000
     32 H19         3.2003    0.1906    0.0000 HC        1 <0>         0.0000
     33 H20         3.2003    0.1906    0.0000 HC        1 <0>         0.0000
     34 H21         3.9149   -0.2219    0.0000 HC        1 <0>         0.0000
     35 H22         3.9149   -0.2219    0.0000 HC        1 <0>         0.0000
     36 H23         3.9149   -0.2219    0.0000 HC        1 <0>         0.0000
     37 H24        -4.6594   -0.2219    0.0000 HO        1 <0>         0.0000
@<TRIPOS>BOND
     1    1   12 1
     2    1   13 1
     3    2    3 1
     4    2   12 1
     5    3    4 1
     6    4    5 1
     7    5    6 1
     8    6    7 1
     9    7    8 1
    10    8    9 1
    11    9   10 1
    12   10   11 1
    13    1   14 1
    14    1   15 1
    15    2   16 1
    16    2   17 1
    17    3   18 1
    18    3   19 1
    19    4   20 1
    20    4   21 1
    21    5   22 1
    22    5   23 1
    23    6   24 1
    24    6   25 1
    25    7   26 1
    26    7   27 1
    27    8   28 1
    28    8   29 1
    29    9   30 1
    30    9   31 1
    31   10   32 1
    32   10   33 1
    33   11   34 1
    34   11   35 1
    35   11   36 1
    36   13   37 1
@<TRIPOS>MOLECULE
*****
   34    33     0     0     0
SMALL
NO_CHARGES

@<TRIPOS>ATOM
      1 C1          3.5211    2.8579    0.0000 CT        1 <0>         0.0000
      2 C2          4.2355    3.2704    0.0000 CT        1 <0>         0.0000
      3 C3          4.9500    2.8579    0.0000 CT        1 <0>         0.0000
      4 C4          5.6645    3.2704    0.0000 CT        1 <0>         0.0000
      5 C5          6.3789    2.8579    0.0000 CT        1 <0>         0.0000
      6 C6          7.0934    3.2704    0.0000 CT        1 <0>         0.0000
      7 C7          7.8079    2.8579    0.0000 CT        1 <0>         0.0000
      8 C8          8.5224    3.2704    0.0000 CT        1 <0>         0.0000
      9 C9          9.2368    2.8579    0.0000 CT        1 <0>         0.0000
     10 C10         9.9513    3.2704    0.0000 CT        1 <0>         0.0000
     11 C11        10.6658    2.8579    0.0000 C         1 <0>         0.0000
     12 O1         11.3802    3.2704    0.0000 O         1 <0>         0.0000
     13 H1          3.5211    2.8579    0.0000 HC        1 <0>         0.0000
     14 H2          3.5211    2.8579    0.0000 HC        1 <0>         0.0000
     15 H3          3.5211    2.8579    0.0000 HC        1 <0>         0.0000
     16 H4          4.2355    3.2704    0.0000 HC        1 <0>         0.0000
     17 H5          4.2355    3.2704    0.0000 HC        1 <0>         0.0000
     18 H6          4.9500    2.8579    0.0000 HC        1 <0>         0.0000
     19 H7          4.9500    2.8579    0.0000 HC        1 <0>         0.0000
     20 H8          5.6645    3.2704    0.0000 HC        1 <0>         0.0000
     21 H9          5.6645    3.2704    0.0000 HC        1 <0>         0.0000
     22 H10         6.3789    2.8579    0.0000 HC        1 <0>         0.0000
     23 H11         6.3789    2.8579    0.0000 HC        1 <0>         0.0000
     24 H12         7.0934    3.2704    0.0000 HC        1 <0>         0.0000
     25 H13         7.0934    3.2704    0.0000 HC        1 <0>         0.0000
     26 H14         7.8079    2.8579    0.0000 HC        1 <0>         0.0000
     27 H15         7.8079    2.8579    0.0000 HC        1 <0>         0.0000
     28 H16         8.5224    3.2704    0.0000 HC        1 <0>         0.0000
     29 H17         8.5224    3.2704    0.0000 HC        1 <0>         0.0000
     30 H18         9.2368    2.8579    0.0000 HC        1 <0>         0.0000
     31 H19         9.2368    2.8579    0.0000 HC        1 <0>         0.0000
     32 H20         9.9513    3.2704    0.0000 HC        1 <0>         0.0000
     33 H21         9.9513    3.2704    0.0000 HC        1 <0>         0.0000
     34 H22        10.6658    2.8579    0.0000 H4        1 <0>         0.0000
@<TRIPOS>BOND
     1    1    2 1
     2    2    3 1
     3    3    4 1
     4    4    5 1
     5    5    6 1
     6    6    7 1
     7    7    8 1
     8    8    9 1
     9    9   10 1
    10   10   11 1
    11   11   12 2
    12    1   13 1
    13    1   14 1
    14    1   15 1
    15    2   16 1
    16    2   17 1
    17    3   18 1
    18    3   19 1
    19    4   20 1
    20    4   21 1
    21    5   22 1
    22    5   23 1
    23    6   24 1
    24    6   25 1
    25    7   26 1
    26    7   27 1
    27    8   28 1
    28    8   29 1
    29    9   30 1
    30    9   31 1
    31   10   32 1
    32   10   33 1
    33   11   34 1
@<TRIPOS>MOLECULE
*****
   14    13     0     0     0
SMALL
NO_CHARGES

@<TRIPOS>ATOM
      1 C1          2.4750   -1.4289    0.0000 CT        1 <0>         0.0000
      2 C2          2.0625   -0.7145    0.0000 C         1 <0>         0.0000
      3 O1          2.4750    0.0000    0.0000 O         1 <0>         0.0000
      4 C3          1.2375   -0.7145    0.0000 CT        1 <0>         0.0000
      5 C4          0.8250    0.0000    0.0000 CT        1 <0>         0.0000
      6 O2          0.0000    0.0000    0.0000 OH        1 <0>         0.0000
      7 H1          2.4750   -1.4289    0.0000 HC        1 <0>         0.0000
      8 H2          2.4750   -1.4289    0.0000 HC        1 <0>         0.0000
      9 H3          2.4750   -1.4289    0.0000 HC        1 <0>         0.0000
     10 H4          1.2375   -0.7145    0.0000 HC        1 <0>         0.0000
     11 H5          1.2375   -0.7145    0.0000 HC        1 <0>         0.0000
     12 H6          0.8250    0.0000    0.0000 H1        1 <0>         0.0000
     13 H7          0.8250    0.0000    0.0000 H1        1 <0>         0.0000
     14 H8          0.0000    0.0000    0.0000 HO        1 <0>         0.0000
@<TRIPOS>BOND
     1    1    2 1
     2    2    3 2
     3    2    4 1
     4    4    5 1
     5    5    6 1
     6    1    7 1
     7    1    8 1
     8    1    9 1
     9    4   10 1
    10    4   11 1
    11    5   12 1
    12    5   13 1
    13    6   14 1
@<TRIPOS>MOLECULE
*****
   45    46     0     0     0
SMALL
NO_CHARGES

@<TRIPOS>ATOM
      1 O1          0.7145   -1.2375    0.0000 OH        1 <0>         0.0000
      2 C1          1.4289   -1.6500    0.0000 CT        1 <0>         0.0000
      3 C2          1.4289   -2.4750    0.0000 CT        1 <0>         0.0000
      4 O2          2.1434   -2.8875    0.0000 OS        1 <0>         0.0000
      5 C3          2.1434   -3.7125    0.0000 CT        1 <0>         0.0000
      6 O3          2.8579   -4.1250    0.0000 OS        1 <0>         0.0000
      7 C4          3.5724   -3.7125    0.0000 CT        1 <0>         0.0000
      8 C5          4.2868   -4.1250    0.0000 CT        1 <0>         0.0000
      9 O4          5.0013   -3.7125    0.0000 OS        1 <0>         0.0000
     10 C6          5.7158   -4.1250    0.0000 CT        1 <0>         0.0000
     11 O5          6.4302   -3.7125    0.0000 OH        1 <0>         0.0000
     12 C7          5.7158   -4.9500    0.0000 CT        1 <0>         0.0000
     13 O6          6.4302   -5.3625    0.0000 OH        1 <0>         0.0000
     14 C8          5.0013   -5.3625    0.0000 CT        1 <0>         0.0000
     15 O7          5.0013   -6.1875    0.0000 OH        1 <0>         0.0000
     16 C9          4.2868   -4.9500    0.0000 CT        1 <0>         0.0000
     17 O8          3.5724   -5.3625    0.0000 OH        1 <0>         0.0000
     18 C10         1.4289   -4.1250    0.0000 CT        1 <0>         0.0000
     19 O9          1.4289   -4.9500    0.0000 OH        1 <0>         0.0000
     20 C11         0.7145   -3.7125    0.0000 CT        1 <0>         0.0000
     21 O10         0.0000   -4.1250    0.0000 OH        1 <0>         0.0000
     22 C12         0.7145   -2.8875    0.0000 CT        1 <0>         0.0000
     23 O11         0.0000   -2.4750    0.0000 OH        1 <0>         0.0000
     24 H1          0.7145   -1.2375    0.0000 HO        1 <0>         0.0000
     25 H2          1.4289   -1.6500    0.0000 H1        1 <0>         0.0000
     26 H3          1.4289   -1.6500    0.0000 H1        1 <0>         0.0000
     27 H4          1.4289   -2.4750    0.0000 H1        1 <0>         0.0000
     28 H5          2.1434   -3.7125    0.0000 H2        1 <0>         0.0000
     29 H6          3.5724   -3.7125    0.0000 H1        1 <0>         0.0000
     30 H7          3.5724   -3.7125    0.0000 H1        1 <0>         0.0000
     31 H8          4.2868   -4.1250    0.0000 H1        1 <0>         0.0000
     32 H9          5.7158   -4.1250    0.0000 H2        1 <0>         0.0000
     33 H10         6.4302   -3.7125    0.0000 HO        1 <0>         0.0000
     34 H11         5.7158   -4.9500    0.0000 H1        1 <0>         0.0000
     35 H12         6.4302   -5.3625    0.0000 HO        1 <0>         0.0000
     36 H13         5.0013   -5.3625    0.0000 H1        1 <0>         0.0000
     37 H14         5.0013   -6.1875    0.0000 HO        1 <0>         0.0000
     38 H15         4.2868   -4.9500    0.0000 H1        1 <0>         0.0000
     39 H16         3.5724   -5.3625    0.0000 HO        1 <0>         0.0000
     40 H17         1.4289   -4.1250    0.0000 H1        1 <0>         0.0000
     41 H18         1.4289   -4.9500    0.0000 HO        1 <0>         0.0000
     42 H19         0.7145   -3.7125    0.0000 H1        1 <0>         0.0000
     43 H20         0.0000   -4.1250    0.0000 HO        1 <0>         0.0000
     44 H21         0.7145   -2.8875    0.0000 H1        1 <0>         0.0000
     45 H22         0.0000   -2.4750    0.0000 HO        1 <0>         0.0000
@<TRIPOS>BOND
     1    1    2 1
     2    2    3 1
     3    3    4 1
     4    4    5 1
     5    5    6 1
     6    6    7 1
     7    7    8 1
     8    8    9 1
     9    9   10 1
    10   10   11 1
    11   10   12 1
    12   12   13 1
    13   12   14 1
    14   14   15 1
    15   14   16 1
    16    8   16 1
    17   16   17 1
    18    5   18 1
    19   18   19 1
    20   18   20 1
    21   20   21 1
    22   20   22 1
    23    3   22 1
    24   22   23 1
    25    1   24 1
    26    2   25 1
    27    2   26 1
    28    3   27 1
    29    5   28 1
    30    7   29 1
    31    7   30 1
    32    8   31 1
    33   10   32 1
    34   11   33 1
    35   12   34 1
    36   13   35 1
    37   14   36 1
    38   15   37 1
    39   16   38 1
    40   17   39 1
    41   18   40 1
    42   19   41 1
    43   20   42 1
    44   21   43 1
    45   22   44 1
    46   23   45 1
@<TRIPOS>MOLECULE
*****
   17    17     0     0     0
SMALL
NO_CHARGES

@<TRIPOS>ATOM
      1 C1          2.1434   -0.4125    0.0000 CT        1 <0>         0.0000
      2 C2          1.4289    0.0000    0.0000 CA        1 <0>         0.0000
      3 C3          0.7145   -0.4125    0.0000 CA        1 <0>         0.0000
      4 C4          0.0000    0.0000    0.0000 CA        1 <0>         0.0000
      5 C5          0.0000    0.8250    0.0000 CA        1 <0>         0.0000
      6 O1         -0.7145    1.2375    0.0000 OH        1 <0>         0.0000
      7 C6          0.7145    1.2375    0.0000 CA        1 <0>         0.0000
      8 O2          0.7145    2.0625    0.0000 OH        1 <0>         0.0000
      9 C7          1.4289    0.8250    0.0000 CA        1 <0>         0.0000
     10 H1          2.1434   -0.4125    0.0000 HC        1 <0>         0.0000
     11 H2          2.1434   -0.4125    0.0000 HC        1 <0>         0.0000
     12 H3          2.1434   -0.4125    0.0000 HC        1 <0>         0.0000
     13 H4          0.7145   -0.4125    0.0000 HA        1 <0>         0.0000
     14 H5          0.0000    0.0000    0.0000 HA        1 <0>         0.0000
     15 H6         -0.7145    1.2375    0.0000 HO        1 <0>         0.0000
     16 H7          0.7145    2.0625    0.0000 HO        1 <0>         0.0000
     17 H8          1.4289    0.8250    0.0000 HA        1 <0>         0.0000
@<TRIPOS>BOND
     1    1    2 1
     2    2    3 ar
     3    3    4 ar
     4    4    5 ar
     5    5    6 1
     6    5    7 ar
     7    7    8 1
     8    7    9 ar
     9    2    9 ar
    10    1   10 1
    11    1   11 1
    12    1   12 1
    13    3   13 1
    14    4   14 1
    15    6   15 1
    16    8   16 1
    17    9   17 1
@<TRIPOS>MOLECULE
BHG
   42    42     0     0     0
SMALL
NO_CHARGES

@<TRIPOS>ATOM
      1 C1         -0.5339    0.1729    0.0000 CT        1 <0>         0.0000
      2 O1          0.1805    0.5854    0.0000 OS        1 <0>         0.0000
      3 C2         -0.5339   -0.6521    0.0000 CT        1 <0>         0.0000
      4 O2          0.1805   -1.0646    0.0000 OH        1 <0>         0.0000
      5 C3         -1.2484   -1.0646    0.0000 CT        1 <0>         0.0000
      6 O3         -1.2484   -1.8896    0.0000 OH        1 <0>         0.0000
      7 C4         -1.9629   -0.6521    0.0000 CT        1 <0>         0.0000
      8 O4         -2.6774   -1.0646    0.0000 OH        1 <0>         0.0000
      9 C5         -1.9629    0.1729    0.0000 CT        1 <0>         0.0000
     10 O5         -1.2484    0.5854    0.0000 OS        1 <0>         0.0000
     11 C6         -2.6774    0.5854    0.0000 CT        1 <0>         0.0000
     12 O6         -2.6774    1.4104    0.0000 OH        1 <0>         0.0000
     13 C7          0.8950    0.1729    0.0000 CT        1 <0>         0.0000
     14 C8          1.6095    0.5854    0.0000 CT        1 <0>         0.0000
     15 C9          2.3239    0.1729    0.0000 CT        1 <0>         0.0000
     16 C10         3.0384    0.5854    0.0000 CT        1 <0>         0.0000
     17 C11         3.7529    0.1729    0.0000 CT        1 <0>         0.0000
     18 C12         4.4674    0.5854    0.0000 CT        1 <0>         0.0000
     19 H1          0.0411    0.0715    0.0000 H2        1 <0>         0.0000
     20 H2          0.0411   -0.5507    0.0000 H1        1 <0>         0.0000
     21 H3         -0.7427   -1.3566    0.0000 H1        1 <0>         0.0000
     22 H4         -1.9629   -1.2361    0.0000 H1        1 <0>         0.0000
     23 H5         -2.4686   -0.1191    0.0000 H1        1 <0>         0.0000
     24 H6          0.1805   -1.0646    0.0000 HO        1 <0>         0.0000
     25 H7         -1.2484   -1.8896    0.0000 HO        1 <0>         0.0000
     26 H8         -2.6774   -1.0646    0.0000 HO        1 <0>         0.0000
     27 H9         -2.6774    0.5854    0.0000 H1        1 <0>         0.0000
     28 H10        -2.6774    0.5854    0.0000 H1        1 <0>         0.0000
     29 H11        -2.6774    1.4104    0.0000 HO        1 <0>         0.0000
     30 H12         0.8950    0.1729    0.0000 H1        1 <0>         0.0000
     31 H13         0.8950    0.1729    0.0000 H1        1 <0>         0.0000
     32 H14         1.6095    0.5854    0.0000 HC        1 <0>         0.0000
     33 H15         1.6095    0.5854    0.0000 HC        1 <0>         0.0000
     34 H16         2.3239    0.1729    0.0000 HC        1 <0>         0.0000
     35 H17         2.3239    0.1729    0.0000 HC        1 <0>         0.0000
     36 H18         3.0384    0.5854    0.0000 HC        1 <0>         0.0000
     37 H19         3.0384    0.5854    0.0000 HC        1 <0>         0.0000
     38 H20         3.7529    0.1729    0.0000 HC        1 <0>         0.0000
     39 H21         3.7529    0.1729    0.0000 HC        1 <0>         0.0000
     40 H22         4.4674    0.5854    0.0000 HC        1 <0>         0.0000
     41 H23         4.4674    0.5854    0.0000 HC        1 <0>         0.0000
     42 H24         4.4674    0.5854    0.0000 HC        1 <0>         0.0000
@<TRIPOS>BOND
     1    1    2 1
     2    1    3 1
     3    1   10 1
     4    1   19 1
     5    2   13 1
     6    3    4 1
     7    3    5 1
     8    3   20 1
     9    5    6 1
    10    5    7 1
    11    5   21 1
    12    7    8 1
    13    7    9 1
    14    7   22 1
    15    9   10 1
    16    9   11 1
    17    9   23 1
    18   11   12 1
    19   13   14 1
    20   14   15 1
    21   15   16 1
    22   16   17 1
    23   17   18 1
    24    4   24 1
    25    6   25 1
    26    8   26 1
    27   11   27 1
    28   11   28 1
    29   12   29 1
    30   13   30 1
    31   13   31 1
    32   14   32 1
    33   14   33 1
    34   15   34 1
    35   15   35 1
    36   16   36 1
    37   16   37 1
    38   17   38 1
    39   17   39 1
    40   18   40 1
    41   18   41 1
    42   18   42 1
@<TRIPOS>MOLECULE
*****
   24    24     0     0     0
SMALL
NO_CHARGES

@<TRIPOS>ATOM
      1 O1          0.0059   -1.5764    0.0000 OH        1 <0>         0.0000
      2 C1         -0.3297   -0.8227    0.0000 CT        1 <0>         0.0000
      3 C2          0.1553   -0.1553    0.0000 CT        1 <0>         0.0000
      4 O2         -0.0997    0.6294    0.0000 OS        1 <0>         0.0000
      5 C3          0.5678    1.1143    0.0000 CT        1 <0>         0.0000
      6 O3          0.0157    1.7274    0.0000 OH        1 <0>         0.0000
      7 C4          1.1198    1.7274    0.0000 CT        1 <0>         0.0000
      8 O4          0.8649    2.5120    0.0000 OH        1 <0>         0.0000
      9 C5          1.2352    0.6294    0.0000 CT        1 <0>         0.0000
     10 O5          2.0198    0.8843    0.0000 OH        1 <0>         0.0000
     11 C6          0.9803   -0.1553    0.0000 CT        1 <0>         0.0000
     12 O6          1.4652   -0.8227    0.0000 OH        1 <0>         0.0000
     13 H1          0.0059   -1.5764    0.0000 HO        1 <0>         0.0000
     14 H2         -0.3297   -0.8227    0.0000 H1        1 <0>         0.0000
     15 H3         -0.3297   -0.8227    0.0000 H1        1 <0>         0.0000
     16 H4          0.1553   -0.1553    0.0000 H1        1 <0>         0.0000
     17 H5          0.0157    1.7274    0.0000 HO        1 <0>         0.0000
     18 H6          1.1198    1.7274    0.0000 H1        1 <0>         0.0000
     19 H7          1.1198    1.7274    0.0000 H1        1 <0>         0.0000
     20 H8          0.8649    2.5120    0.0000 HO        1 <0>         0.0000
     21 H9          1.2352    0.6294    0.0000 H1        1 <0>         0.0000
     22 H10         2.0198    0.8843    0.0000 HO        1 <0>         0.0000
     23 H11         0.9803   -0.1553    0.0000 H1        1 <0>         0.0000
     24 H12         1.4652   -0.8227    0.0000 HO        1 <0>         0.0000
@<TRIPOS>BOND
     1    1    2 1
     2    2    3 1
     3    3    4 1
     4    4    5 1
     5    5    6 1
     6    5    7 1
     7    7    8 1
     8    5    9 1
     9    9   10 1
    10    9   11 1
    11    3   11 1
    12   11   12 1
    13    1   13 1
    14    2   14 1
    15    2   15 1
    16    3   16 1
    17    6   17 1
    18    7   18 1
    19    7   19 1
    20    8   20 1
    21    9   21 1
    22   10   22 1
    23   11   23 1
    24   12   24 1
@<TRIPOS>MOLECULE
*****
   61    65     0     0     0
SMALL
NO_CHARGES

@<TRIPOS>ATOM
      1 C1          4.5466   -0.5086    0.0000 CT        1 <0>         0.0000
      2 C2          4.8269    0.2673    0.0000 CT        1 <0>         0.0000
      3 C3          5.3587   -0.3634    0.0000 CT        1 <0>         0.0000
      4 C4          6.1708   -0.2182    0.0000 CT        1 <0>         0.0000
      5 C5          6.4511    0.5577    0.0000 CT        1 <0>         0.0000
      6 O1          7.2632    0.7029    0.0000 OH        1 <0>         0.0000
      7 C6          5.9193    1.1884    0.0000 CT        1 <0>         0.0000
      8 C7          5.1072    1.0432    0.0000 CT        1 <0>         0.0000
      9 C8          4.5754    1.6739    0.0000 CT        1 <0>         0.0000
     10 C9          3.7633    1.5287    0.0000 CT        1 <0>         0.0000
     11 C10         3.4830    0.7528    0.0000 CT        1 <0>         0.0000
     12 C11         4.0148    0.1221    0.0000 CT        1 <0>         0.0000
     13 C12         3.7345   -0.6539    0.0000 CT        1 <0>         0.0000
     14 C13         2.9224   -0.7991    0.0000 CT        1 <0>         0.0000
     15 C14         2.3905   -0.1684    0.0000 CT        1 <0>         0.0000
     16 C15         2.0307   -0.9107    0.0000 CT        1 <0>         0.0000
     17 C16         1.5660   -0.1416    0.0000 CT        1 <0>         0.0000
     18 C17         1.3367    0.6509    0.0000 CT        1 <0>         0.0000
     19 C18         2.0195    1.1139    0.0000 CT        1 <0>         0.0000
     20 C19         2.6708    0.6076    0.0000 CT        1 <0>         0.0000
     21 O2          2.8685    1.4085    0.0000 OH        1 <0>         0.0000
     22 C20         1.0596   -0.7929    0.0000 CM        1 <0>         0.0000
     23 C21         1.2889   -1.5854    0.0000 CM        1 <0>         0.0000
     24 C22         0.6061   -2.0484    0.0000 C         1 <0>         0.0000
     25 O3          0.5793   -2.8729    0.0000 O         1 <0>         0.0000
     26 O4         -0.0452   -1.5420    0.0000 OS        1 <0>         0.0000
     27 C23         0.2351   -0.7661    0.0000 CT        1 <0>         0.0000
     28 H1          4.5466   -0.5086    0.0000 HC        1 <0>         0.0000
     29 H2          4.5466   -0.5086    0.0000 HC        1 <0>         0.0000
     30 H3          4.5466   -0.5086    0.0000 HC        1 <0>         0.0000
     31 H4          5.3587   -0.3634    0.0000 HC        1 <0>         0.0000
     32 H5          5.3587   -0.3634    0.0000 HC        1 <0>         0.0000
     33 H6          6.1708   -0.2182    0.0000 HC        1 <0>         0.0000
     34 H7          6.1708   -0.2182    0.0000 HC        1 <0>         0.0000
     35 H8          6.4511    0.5577    0.0000 H1        1 <0>         0.0000
     36 H9          7.2632    0.7029    0.0000 HO        1 <0>         0.0000
     37 H10         5.9193    1.1884    0.0000 HC        1 <0>         0.0000
     38 H11         5.9193    1.1884    0.0000 HC        1 <0>         0.0000
     39 H12         5.1072    1.0432    0.0000 HC        1 <0>         0.0000
     40 H13         4.5754    1.6739    0.0000 HC        1 <0>         0.0000
     41 H14         4.5754    1.6739    0.0000 HC        1 <0>         0.0000
     42 H15         3.7633    1.5287    0.0000 HC        1 <0>         0.0000
     43 H16         3.7633    1.5287    0.0000 HC        1 <0>         0.0000
     44 H17         3.4830    0.7528    0.0000 HC        1 <0>         0.0000
     45 H18         4.0148    0.1221    0.0000 HC        1 <0>         0.0000
     46 H19         3.7345   -0.6539    0.0000 HC        1 <0>         0.0000
     47 H20         3.7345   -0.6539    0.0000 HC        1 <0>         0.0000
     48 H21         2.9224   -0.7991    0.0000 HC        1 <0>         0.0000
     49 H22         2.9224   -0.7991    0.0000 HC        1 <0>         0.0000
     50 H23         2.0307   -0.9107    0.0000 HC        1 <0>         0.0000
     51 H24         2.0307   -0.9107    0.0000 HC        1 <0>         0.0000
     52 H25         2.0307   -0.9107    0.0000 HC        1 <0>         0.0000
     53 H26         1.5660   -0.1416    0.0000 HC        1 <0>         0.0000
     54 H27         1.3367    0.6509    0.0000 HC        1 <0>         0.0000
     55 H28         1.3367    0.6509    0.0000 HC        1 <0>         0.0000
     56 H29         2.0195    1.1139    0.0000 HC        1 <0>         0.0000
     57 H30         2.0195    1.1139    0.0000 HC        1 <0>         0.0000
     58 H31         2.8685    1.4085    0.0000 HO        1 <0>         0.0000
     59 H32         1.2889   -1.5854    0.0000 HA        1 <0>         0.0000
     60 H33         0.2351   -0.7661    0.0000 H1        1 <0>         0.0000
     61 H34         0.2351   -0.7661    0.0000 H1        1 <0>         0.0000
@<TRIPOS>BOND
     1    1    2 1
     2    2    3 1
     3    3    4 1
     4    4    5 1
     5    5    6 1
     6    5    7 1
     7    7    8 1
     8    2    8 1
     9    8    9 1
    10    9   10 1
    11   10   11 1
    12   11   12 1
    13    2   12 1
    14   12   13 1
    15   13   14 1
    16   14   15 1
    17   15   16 1
    18   15   17 1
    19   17   18 1
    20   18   19 1
    21   19   20 1
    22   11   20 1
    23   15   20 1
    24   20   21 1
    25   17   22 1
    26   22   23 2
    27   23   24 1
    28   24   25 2
    29   24   26 1
    30   26   27 1
    31   22   27 1
    32    1   28 1
    33    1   29 1
    34    1   30 1
    35    3   31 1
    36    3   32 1
    37    4   33 1
    38    4   34 1
    39    5   35 1
    40    6   36 1
    41    7   37 1
    42    7   38 1
    43    8   39 1
    44    9   40 1
    45    9   41 1
    46   10   42 1
    47   10   43 1
    48   11   44 1
    49   12   45 1
    50   13   46 1
    51   13   47 1
    52   14   48 1
    53   14   49 1
    54   16   50 1
    55   16   51 1
    56   16   52 1
    57   17   53 1
    58   18   54 1
    59   18   55 1
    60   19   56 1
    61   19   57 1
    62   21   58 1
    63   23   59 1
    64   27   60 1
    65   27   61 1
@<TRIPOS>MOLECULE
*****
   15    16     0     0     0
SMALL
NO_CHARGES

@<TRIPOS>ATOM
      1 O1         -0.1435   -0.0305    0.0000 OS        1 <0>         0.0000
      2 C1         -0.6284   -0.6979    0.0000 CW        1 <0>         0.0000
      3 C2         -0.1435   -1.3654    0.0000 CC        1 <0>         0.0000
      4 C3          0.6411   -1.1104    0.0000 CB        1 <0>         0.0000
      5 C4          0.6411   -0.2854    0.0000 CB        1 <0>         0.0000
      6 C5          1.3556    0.1271    0.0000 CA        1 <0>         0.0000
      7 C6          2.0701   -0.2854    0.0000 CA        1 <0>         0.0000
      8 C7          2.0701   -1.1104    0.0000 CA        1 <0>         0.0000
      9 C8          1.3556   -1.5229    0.0000 CA        1 <0>         0.0000
     10 H1         -0.6284   -0.6979    0.0000 H4        1 <0>         0.0000
     11 H2         -0.1435   -1.3654    0.0000 HA        1 <0>         0.0000
     12 H3          1.3556    0.1271    0.0000 HA        1 <0>         0.0000
     13 H4          2.0701   -0.2854    0.0000 HA        1 <0>         0.0000
     14 H5          2.0701   -1.1104    0.0000 HA        1 <0>         0.0000
     15 H6          1.3556   -1.5229    0.0000 HA        1 <0>         0.0000
@<TRIPOS>BOND
     1    1    2 1
     2    2    3 2
     3    3    4 1
     4    4    5 ar
     5    1    5 1
     6    5    6 ar
     7    6    7 ar
     8    7    8 ar
     9    8    9 ar
    10    4    9 ar
    11    2   10 1
    12    3   11 1
    13    6   12 1
    14    7   13 1
    15    8   14 1
    16    9   15 1
@<TRIPOS>MOLECULE
*****
   14    13     0     0     0
SMALL
NO_CHARGES

@<TRIPOS>ATOM
      1 C1          2.0625    0.7145    0.0000 CT        1 <0>         0.0000
      2 C2          1.2375    0.7145    0.0000 CT        1 <0>         0.0000
      3 C3          0.8250    1.4289    0.0000 C         1 <0>         0.0000
      4 O1          1.2375    2.1434    0.0000 OH        1 <0>         0.0000
      5 O2          0.0000    1.4289    0.0000 O         1 <0>         0.0000
      6 C4          0.8250    0.0000    0.0000 C         1 <0>         0.0000
      7 O3          1.2375   -0.7145    0.0000 OH        1 <0>         0.0000
      8 O4          0.0000    0.0000    0.0000 O         1 <0>         0.0000
      9 H1          2.0625    0.7145    0.0000 HC        1 <0>         0.0000
     10 H2          2.0625    0.7145    0.0000 HC        1 <0>         0.0000
     11 H3          2.0625    0.7145    0.0000 HC        1 <0>         0.0000
     12 H4          1.2375    0.7145    0.0000 HC        1 <0>         0.0000
     13 H5          1.2375    2.1434    0.0000 HO        1 <0>         0.0000
     14 H6          1.2375   -0.7145    0.0000 HO        1 <0>         0.0000
@<TRIPOS>BOND
     1    1    2 1
     2    2    3 1
     3    3    4 1
     4    3    5 2
     5    2    6 1
     6    6    7 1
     7    6    8 2
     8    1    9 1
     9    1   10 1
    10    1   11 1
    11    2   12 1
    12    4   13 1
    13    7   14 1
@<TRIPOS>MOLECULE
MAX
   48    50     0     0     0
SMALL
NO_CHARGES

@<TRIPOS>ATOM
      1 C1          1.2806    1.9098    0.0000 CA        1 <0>         0.0000
      2 C2          1.9951    2.3223    0.0000 CA        1 <0>         0.0000
      3 C3          2.7096    1.9098    0.0000 CA        1 <0>         0.0000
      4 C4          2.7096    1.0848    0.0000 CA        1 <0>         0.0000
      5 C5          1.9951    0.6723    0.0000 CA        1 <0>         0.0000
      6 C6          1.2806    1.0848    0.0000 CA        1 <0>         0.0000
      7 C7          0.5661    0.6723    0.0000 CT        1 <0>         0.0000
      8 C8          0.5661   -0.1527    0.0000 CT        1 <0>         0.0000
      9 C9          1.2336   -0.6376    0.0000 CT        1 <0>         0.0000
     10 O1          0.9786   -1.4222    0.0000 OS        1 <0>         0.0000
     11 C10         0.1536   -1.4222    0.0000 C         1 <0>         0.0000
     12 C11        -0.1013   -0.6376    0.0000 CT        1 <0>         0.0000
     13 O2         -0.3313   -2.0897    0.0000 O         1 <0>         0.0000
     14 C12        -0.8859   -0.3827    0.0000 CT        1 <0>         0.0000
     15 C13        -1.4990   -0.9347    0.0000 CA        1 <0>         0.0000
     16 C14        -1.3275   -1.7417    0.0000 CA        1 <0>         0.0000
     17 C15        -1.9406   -2.2937    0.0000 CA        1 <0>         0.0000
     18 C16        -2.7252   -2.0388    0.0000 CA        1 <0>         0.0000
     19 C17        -2.8967   -1.2318    0.0000 CA        1 <0>         0.0000
     20 C18        -2.2836   -0.6798    0.0000 CA        1 <0>         0.0000
     21 O3         -3.6813   -0.9768    0.0000 OS        1 <0>         0.0000
     22 C19        -4.2944   -1.5289    0.0000 CT        1 <0>         0.0000
     23 O4         -3.3383   -2.5908    0.0000 OH        1 <0>         0.0000
     24 O5          3.4240    2.3223    0.0000 OH        1 <0>         0.0000
     25 O6          1.9951    3.1473    0.0000 OS        1 <0>         0.0000
     26 C20         2.7096    3.5598    0.0000 CT        1 <0>         0.0000
     27 H1          1.0864    0.1124    0.0000 HC        1 <0>         0.0000
     28 H2         -0.1926   -0.0609    0.0000 HC        1 <0>         0.0000
     29 H3          1.2806    1.9098    0.0000 HA        1 <0>         0.0000
     30 H4          2.7096    1.0848    0.0000 HA        1 <0>         0.0000
     31 H5          1.9951    0.6723    0.0000 HA        1 <0>         0.0000
     32 H6          0.5661    0.6723    0.0000 HC        1 <0>         0.0000
     33 H7          0.5661    0.6723    0.0000 HC        1 <0>         0.0000
     34 H8          1.2336   -0.6376    0.0000 H1        1 <0>         0.0000
     35 H9          1.2336   -0.6376    0.0000 H1        1 <0>         0.0000
     36 H10        -0.8859   -0.3827    0.0000 HC        1 <0>         0.0000
     37 H11        -0.8859   -0.3827    0.0000 HC        1 <0>         0.0000
     38 H12        -1.3275   -1.7417    0.0000 HA        1 <0>         0.0000
     39 H13        -1.9406   -2.2937    0.0000 HA        1 <0>         0.0000
     40 H14        -2.2836   -0.6798    0.0000 HA        1 <0>         0.0000
     41 H15        -4.2944   -1.5289    0.0000 H1        1 <0>         0.0000
     42 H16        -4.2944   -1.5289    0.0000 H1        1 <0>         0.0000
     43 H17        -4.2944   -1.5289    0.0000 H1        1 <0>         0.0000
     44 H18        -3.3383   -2.5908    0.0000 HO        1 <0>         0.0000
     45 H19         3.4240    2.3223    0.0000 HO        1 <0>         0.0000
     46 H20         2.7096    3.5598    0.0000 H1        1 <0>         0.0000
     47 H21         2.7096    3.5598    0.0000 H1        1 <0>         0.0000
     48 H22         2.7096    3.5598    0.0000 H1        1 <0>         0.0000
@<TRIPOS>BOND
     1    1    2 ar
     2    1    6 ar
     3    2    3 ar
     4    2   25 1
     5    3    4 ar
     6    3   24 1
     7    4    5 ar
     8    5    6 ar
     9    6    7 1
    10    7    8 1
    11    8    9 1
    12    8   12 1
    13    8   27 1
    14    9   10 1
    15   10   11 1
    16   11   12 1
    17   11   13 2
    18   12   14 1
    19   12   28 1
    20   14   15 1
    21   15   16 ar
    22   15   20 ar
    23   16   17 ar
    24   17   18 ar
    25   18   19 ar
    26   18   23 1
    27   19   20 ar
    28   19   21 1
    29   21   22 1
    30   25   26 1
    31    1   29 1
    32    4   30 1
    33    5   31 1
    34    7   32 1
    35    7   33 1
    36    9   34 1
    37    9   35 1
    38   14   36 1
    39   14   37 1
    40   16   38 1
    41   17   39 1
    42   20   40 1
    43   22   41 1
    44   22   42 1
    45   22   43 1
    46   23   44 1
    47   24   45 1
    48   26   46 1
    49   26   47 1
    50   26   48 1
@<TRIPOS>MOLECULE
*****
   32    34     0     0     0
SMALL
NO_CHARGES

@<TRIPOS>ATOM
      1 C1          0.0000   -2.4750    0.0000 CT        1 <0>         0.0000
      2 O1          0.0000   -1.6500    0.0000 OS        1 <0>         0.0000
      3 C2          0.7145   -1.2375    0.0000 CA        1 <0>         0.0000
      4 C3          0.7145   -0.4125    0.0000 CA        1 <0>         0.0000
      5 C4          1.4289    0.0000    0.0000 CA        1 <0>         0.0000
      6 C5          2.1434   -0.4125    0.0000 CB        1 <0>         0.0000
      7 C6          2.8579    0.0000    0.0000 C         1 <0>         0.0000
      8 O2          2.8579    0.8250    0.0000 O         1 <0>         0.0000
      9 C7          3.5724   -0.4125    0.0000 CP        1 <0>         0.0000
     10 C8          3.5724   -1.2375    0.0000 CA        1 <0>         0.0000
     11 O3          2.8579   -1.6500    0.0000 OS        1 <0>         0.0000
     12 C9          2.1434   -1.2375    0.0000 CB        1 <0>         0.0000
     13 C10         1.4289   -1.6500    0.0000 CA        1 <0>         0.0000
     14 C11         4.2868    0.0000    0.0000 CP        1 <0>         0.0000
     15 C12         4.2868    0.8250    0.0000 CA        1 <0>         0.0000
     16 C13         5.0013    1.2375    0.0000 CA        1 <0>         0.0000
     17 C14         5.7158    0.8250    0.0000 CA        1 <0>         0.0000
     18 O4          6.4302    1.2375    0.0000 OH        1 <0>         0.0000
     19 C15         5.7158    0.0000    0.0000 CA        1 <0>         0.0000
     20 C16         5.0013   -0.4125    0.0000 CA        1 <0>         0.0000
     21 H1          0.0000   -2.4750    0.0000 H1        1 <0>         0.0000
     22 H2          0.0000   -2.4750    0.0000 H1        1 <0>         0.0000
     23 H3          0.0000   -2.4750    0.0000 H1        1 <0>         0.0000
     24 H4          0.7145   -0.4125    0.0000 HA        1 <0>         0.0000
     25 H5          1.4289    0.0000    0.0000 HA        1 <0>         0.0000
     26 H6          3.5724   -1.2375    0.0000 H4        1 <0>         0.0000
     27 H7          1.4289   -1.6500    0.0000 HA        1 <0>         0.0000
     28 H8          4.2868    0.8250    0.0000 HA        1 <0>         0.0000
     29 H9          5.0013    1.2375    0.0000 HA        1 <0>         0.0000
     30 H10         6.4302    1.2375    0.0000 HO        1 <0>         0.0000
     31 H11         5.7158    0.0000    0.0000 HA        1 <0>         0.0000
     32 H12         5.0013   -0.4125    0.0000 HA        1 <0>         0.0000
@<TRIPOS>BOND
     1    1    2 1
     2    2    3 1
     3    3    4 ar
     4    4    5 ar
     5    5    6 ar
     6    6    7 1
     7    7    8 2
     8    7    9 1
     9    9   10 2
    10   10   11 1
    11   11   12 1
    12    6   12 ar
    13   12   13 ar
    14    3   13 ar
    15    9   14 1
    16   14   15 ar
    17   15   16 ar
    18   16   17 ar
    19   17   18 1
    20   17   19 ar
    21   19   20 ar
    22   14   20 ar
    23    1   21 1
    24    1   22 1
    25    1   23 1
    26    4   24 1
    27    5   25 1
    28   10   26 1
    29   13   27 1
    30   15   28 1
    31   16   29 1
    32   18   30 1
    33   19   31 1
    34   20   32 1
@<TRIPOS>MOLECULE
MPP
   29    29     0     0     0
SMALL
NO_CHARGES

@<TRIPOS>ATOM
      1 C1          1.1629    1.7017    0.0000 CT        1 <0>         0.0000
      2 C2          1.8774    2.1142    0.0000 C         1 <0>         0.0000
      3 O1          1.8774    2.9392    0.0000 O         1 <0>         0.0000
      4 O2          2.5919    1.7017    0.0000 OH        1 <0>         0.0000
      5 C3          1.1629    0.8767    0.0000 CT        1 <0>         0.0000
      6 C4          0.4485    0.4642    0.0000 CA        1 <0>         0.0000
      7 C5          0.4485   -0.3608    0.0000 CA        1 <0>         0.0000
      8 C6         -0.2660    0.8767    0.0000 CA        1 <0>         0.0000
      9 C7         -0.2660   -0.7733    0.0000 CA        1 <0>         0.0000
     10 O3         -0.2660   -1.5983    0.0000 OS        1 <0>         0.0000
     11 C8         -0.9805   -2.0108    0.0000 CT        1 <0>         0.0000
     12 C9         -0.9805    0.4642    0.0000 CA        1 <0>         0.0000
     13 C10        -0.9805   -0.3608    0.0000 CA        1 <0>         0.0000
     14 O4         -1.6950   -0.7733    0.0000 OS        1 <0>         0.0000
     15 C11        -1.6950   -1.5983    0.0000 CT        1 <0>         0.0000
     16 H1          1.1629    1.7017    0.0000 HC        1 <0>         0.0000
     17 H2          1.1629    1.7017    0.0000 HC        1 <0>         0.0000
     18 H3          2.5919    1.7017    0.0000 HO        1 <0>         0.0000
     19 H4          1.1629    0.8767    0.0000 HC        1 <0>         0.0000
     20 H5          1.1629    0.8767    0.0000 HC        1 <0>         0.0000
     21 H6          0.4485   -0.3608    0.0000 HA        1 <0>         0.0000
     22 H7         -0.2660    0.8767    0.0000 HA        1 <0>         0.0000
     23 H8         -0.9805   -2.0108    0.0000 H1        1 <0>         0.0000
     24 H9         -0.9805   -2.0108    0.0000 H1        1 <0>         0.0000
     25 H10        -0.9805   -2.0108    0.0000 H1        1 <0>         0.0000
     26 H11        -0.9805    0.4642    0.0000 HA        1 <0>         0.0000
     27 H12        -1.6950   -1.5983    0.0000 H1        1 <0>         0.0000
     28 H13        -1.6950   -1.5983    0.0000 H1        1 <0>         0.0000
     29 H14        -1.6950   -1.5983    0.0000 H1        1 <0>         0.0000
@<TRIPOS>BOND
     1    1    2 1
     2    1    5 1
     3    2    3 2
     4    2    4 1
     5    5    6 1
     6    6    7 ar
     7    6    8 ar
     8    7    9 ar
     9    8   12 ar
    10    9   10 1
    11    9   13 ar
    12   10   11 1
    13   12   13 ar
    14   13   14 1
    15   14   15 1
    16    1   16 1
    17    1   17 1
    18    4   18 1
    19    5   19 1
    20    5   20 1
    21    7   21 1
    22    8   22 1
    23   11   23 1
    24   11   24 1
    25   11   25 1
    26   12   26 1
    27   15   27 1
    28   15   28 1
    29   15   29 1
@<TRIPOS>MOLECULE
QUE
   32    34     0     0     0
SMALL
NO_CHARGES

@<TRIPOS>ATOM
      1 C1         -2.6029   -0.7737    0.0000 CA        1 <0>         0.0000
      2 C2         -1.8884   -1.1862    0.0000 CA        1 <0>         0.0000
      3 C3         -1.1740   -0.7737    0.0000 CB        1 <0>         0.0000
      4 C4         -1.1740    0.0513    0.0000 CB        1 <0>         0.0000
      5 C5         -1.8884    0.4638    0.0000 CA        1 <0>         0.0000
      6 C6         -2.6029    0.0513    0.0000 CA        1 <0>         0.0000
      7 C7         -0.4595   -1.1862    0.0000 C         1 <0>         0.0000
      8 C8          0.2550   -0.7737    0.0000 CA        1 <0>         0.0000
      9 C9          0.2550    0.0513    0.0000 CP        1 <0>         0.0000
     10 C10         0.9695    0.4638    0.0000 CP        1 <0>         0.0000
     11 C11         0.9695    1.2888    0.0000 CA        1 <0>         0.0000
     12 C12         1.6839    1.7013    0.0000 CA        1 <0>         0.0000
     13 C13         2.3984    1.2888    0.0000 CA        1 <0>         0.0000
     14 C14         2.3984    0.4638    0.0000 CA        1 <0>         0.0000
     15 C15         1.6839    0.0513    0.0000 CA        1 <0>         0.0000
     16 O1         -0.4595    0.4638    0.0000 OS        1 <0>         0.0000
     17 O2         -0.4595   -2.0112    0.0000 O         1 <0>         0.0000
     18 O3          3.1129    0.0513    0.0000 OH        1 <0>         0.0000
     19 O4          3.1129    1.7013    0.0000 OH        1 <0>         0.0000
     20 O5          0.9695   -1.1862    0.0000 OH        1 <0>         0.0000
     21 O6         -3.3174    0.4638    0.0000 OH        1 <0>         0.0000
     22 O7         -1.8884   -2.0112    0.0000 OH        1 <0>         0.0000
     23 H1         -2.6029   -0.7737    0.0000 HA        1 <0>         0.0000
     24 H2         -1.8884    0.4638    0.0000 HA        1 <0>         0.0000
     25 H3          0.9695    1.2888    0.0000 HA        1 <0>         0.0000
     26 H4          1.6839    1.7013    0.0000 HA        1 <0>         0.0000
     27 H5          1.6839    0.0513    0.0000 HA        1 <0>         0.0000
     28 H6          3.1129    0.0513    0.0000 HO        1 <0>         0.0000
     29 H7          3.1129    1.7013    0.0000 HO        1 <0>         0.0000
     30 H8          0.9695   -1.1862    0.0000 HO        1 <0>         0.0000
     31 H9         -3.3174    0.4638    0.0000 HO        1 <0>         0.0000
     32 H10        -1.8884   -2.0112    0.0000 HO        1 <0>         0.0000
@<TRIPOS>BOND
     1    1    2 ar
     2    1    6 ar
     3    2    3 ar
     4    2   22 1
     5    3    4 ar
     6    3    7 1
     7    4    5 ar
     8    4   16 1
     9    5    6 ar
    10    6   21 1
    11    7    8 1
    12    7   17 2
    13    8    9 2
    14    8   20 1
    15    9   10 1
    16    9   16 1
    17   10   11 ar
    18   10   15 ar
    19   11   12 ar
    20   12   13 ar
    21   13   14 ar
    22   13   19 1
    23   14   15 ar
    24   14   18 1
    25    1   23 1
    26    5   24 1
    27   11   25 1
    28   12   26 1
    29   15   27 1
    30   18   28 1
    31   19   29 1
    32   20   30 1
    33   21   31 1
    34   22   32 1
@<TRIPOS>MOLECULE
*****
   54    53     0     0     0
SMALL
NO_CHARGES

@<TRIPOS>ATOM
      1 C1         -4.1467    2.5559    0.0000 CT        1 <0>         0.0000
      2 C2         -3.4322    2.1434    0.0000 CT        1 <0>         0.0000
      3 C3         -2.7177    2.5559    0.0000 CT        1 <0>         0.0000
      4 C4         -2.0033    2.1434    0.0000 CT        1 <0>         0.0000
      5 C5         -1.2888    2.5559    0.0000 CT        1 <0>         0.0000
      6 C6         -0.5743    2.1434    0.0000 CT        1 <0>         0.0000
      7 C7          0.1401    2.5559    0.0000 CT        1 <0>         0.0000
      8 C8          0.8546    2.1434    0.0000 CT        1 <0>         0.0000
      9 C9          1.5691    2.5559    0.0000 CM        1 <0>         0.0000
     10 C10         2.2836    2.1434    0.0000 CM        1 <0>         0.0000
     11 C11         2.9980    2.5559    0.0000 CT        1 <0>         0.0000
     12 C12         3.7125    2.1434    0.0000 CT        1 <0>         0.0000
     13 C13         4.4270    2.5559    0.0000 CT        1 <0>         0.0000
     14 C14         5.1414    2.1434    0.0000 CT        1 <0>         0.0000
     15 C15         5.8559    2.5559    0.0000 CT        1 <0>         0.0000
     16 C16         6.5704    2.1434    0.0000 CT        1 <0>         0.0000
     17 C17         7.2849    2.5559    0.0000 CT        1 <0>         0.0000
     18 C18         7.9993    2.1434    0.0000 C         1 <0>         0.0000
     19 O1          8.7138    2.5559    0.0000 OH        1 <0>         0.0000
     20 O2          7.9993    1.3184    0.0000 O         1 <0>         0.0000
     21 H1         -4.1467    2.5559    0.0000 HC        1 <0>         0.0000
     22 H2         -4.1467    2.5559    0.0000 HC        1 <0>         0.0000
     23 H3         -4.1467    2.5559    0.0000 HC        1 <0>         0.0000
     24 H4         -3.4322    2.1434    0.0000 HC        1 <0>         0.0000
     25 H5         -3.4322    2.1434    0.0000 HC        1 <0>         0.0000
     26 H6         -2.7177    2.5559    0.0000 HC        1 <0>         0.0000
     27 H7         -2.7177    2.5559    0.0000 HC        1 <0>         0.0000
     28 H8         -2.0033    2.1434    0.0000 HC        1 <0>         0.0000
     29 H9         -2.0033    2.1434    0.0000 HC        1 <0>         0.0000
     30 H10        -1.2888    2.5559    0.0000 HC        1 <0>         0.0000
     31 H11        -1.2888    2.5559    0.0000 HC        1 <0>         0.0000
     32 H12        -0.5743    2.1434    0.0000 HC        1 <0>         0.0000
     33 H13        -0.5743    2.1434    0.0000 HC        1 <0>         0.0000
     34 H14         0.1401    2.5559    0.0000 HC        1 <0>         0.0000
     35 H15         0.1401    2.5559    0.0000 HC        1 <0>         0.0000
     36 H16         0.8546    2.1434    0.0000 HC        1 <0>         0.0000
     37 H17         0.8546    2.1434    0.0000 HC        1 <0>         0.0000
     38 H18         1.5691    2.5559    0.0000 HA        1 <0>         0.0000
     39 H19         2.2836    2.1434    0.0000 HA        1 <0>         0.0000
     40 H20         2.9980    2.5559    0.0000 HC        1 <0>         0.0000
     41 H21         2.9980    2.5559    0.0000 HC        1 <0>         0.0000
     42 H22         3.7125    2.1434    0.0000 HC        1 <0>         0.0000
     43 H23         3.7125    2.1434    0.0000 HC        1 <0>         0.0000
     44 H24         4.4270    2.5559    0.0000 HC        1 <0>         0.0000
     45 H25         4.4270    2.5559    0.0000 HC        1 <0>         0.0000
     46 H26         5.1414    2.1434    0.0000 HC        1 <0>         0.0000
     47 H27         5.1414    2.1434    0.0000 HC        1 <0>         0.0000
     48 H28         5.8559    2.5559    0.0000 HC        1 <0>         0.0000
     49 H29         5.8559    2.5559    0.0000 HC        1 <0>         0.0000
     50 H30         6.5704    2.1434    0.0000 HC        1 <0>         0.0000
     51 H31         6.5704    2.1434    0.0000 HC        1 <0>         0.0000
     52 H32         7.2849    2.5559    0.0000 HC        1 <0>         0.0000
     53 H33         7.2849    2.5559    0.0000 HC        1 <0>         0.0000
     54 H34         8.7138    2.5559    0.0000 HO        1 <0>         0.0000
@<TRIPOS>BOND
     1    1    2 1
     2    2    3 1
     3    3    4 1
     4    4    5 1
     5    5    6 1
     6    6    7 1
     7    7    8 1
     8    8    9 1
     9    9   10 2
    10   10   11 1
    11   11   12 1
    12   12   13 1
    13   13   14 1
    14   14   15 1
    15   15   16 1
    16   16   17 1
    17   17   18 1
    18   18   19 1
    19   18   20 2
    20    1   21 1
    21    1   22 1
    22    1   23 1
    23    2   24 1
    24    2   25 1
    25    3   26 1
    26    3   27 1
    27    4   28 1
    28    4   29 1
    29    5   30 1
    30    5   31 1
    31    6   32 1
    32    6   33 1
    33    7   34 1
    34    7   35 1
    35    8   36 1
    36    8   37 1
    37    9   38 1
    38   10   39 1
    39   11   40 1
    40   11   41 1
    41   12   42 1
    42   12   43 1
    43   13   44 1
    44   13   45 1
    45   14   46 1
    46   14   47 1
    47   15   48 1
    48   15   49 1
    49   16   50 1
    50   16   51 1
    51   17   52 1
    52   17   53 1
    53   19   54 1
@<TRIPOS>MOLECULE
C8E
   55    54     0     0     0
SMALL
NO_CHARGES

@<TRIPOS>ATOM
      1 C1         -6.6883    0.2205    0.0000 CT        1 <0>         0.0000
      2 C2         -5.9738   -0.1920    0.0000 CT        1 <0>         0.0000
      3 C3         -5.2593    0.2205    0.0000 CT        1 <0>         0.0000
      4 C4         -4.5447   -0.1920    0.0000 CT        1 <0>         0.0000
      5 C5         -3.8303    0.2205    0.0000 CT        1 <0>         0.0000
      6 C6         -3.1157   -0.1920    0.0000 CT        1 <0>         0.0000
      7 C7         -2.4012    0.2205    0.0000 CT        1 <0>         0.0000
      8 C8         -1.6866   -0.1920    0.0000 CT        1 <0>         0.0000
      9 O1         -0.9722    0.2205    0.0000 OS        1 <0>         0.0000
     10 C9         -0.2576   -0.1920    0.0000 CT        1 <0>         0.0000
     11 C10         0.4569    0.2205    0.0000 CT        1 <0>         0.0000
     12 O2          1.1714   -0.1920    0.0000 OS        1 <0>         0.0000
     13 C11         1.8859    0.2205    0.0000 CT        1 <0>         0.0000
     14 C12         2.6005   -0.1920    0.0000 CT        1 <0>         0.0000
     15 O3          3.3149    0.2205    0.0000 OS        1 <0>         0.0000
     16 C13         4.0295   -0.1920    0.0000 CT        1 <0>         0.0000
     17 C14         4.7441    0.2205    0.0000 CT        1 <0>         0.0000
     18 O4          5.4586   -0.1920    0.0000 OS        1 <0>         0.0000
     19 C15         6.1731    0.2205    0.0000 CT        1 <0>         0.0000
     20 C16         6.8876   -0.1920    0.0000 CT        1 <0>         0.0000
     21 O5          7.6022    0.2205    0.0000 OH        1 <0>         0.0000
     22 H1         -6.6883    0.2205    0.0000 HC        1 <0>         0.0000
     23 H2         -6.6883    0.2205    0.0000 HC        1 <0>         0.0000
     24 H3         -6.6883    0.2205    0.0000 HC        1 <0>         0.0000
     25 H4         -5.9738   -0.1920    0.0000 HC        1 <0>         0.0000
     26 H5         -5.9738   -0.1920    0.0000 HC        1 <0>         0.0000
     27 H6         -5.2593    0.2205    0.0000 HC        1 <0>         0.0000
     28 H7         -5.2593    0.2205    0.0000 HC        1 <0>         0.0000
     29 H8         -4.5447   -0.1920    0.0000 HC        1 <0>         0.0000
     30 H9         -4.5447   -0.1920    0.0000 HC        1 <0>         0.0000
     31 H10        -3.8303    0.2205    0.0000 HC        1 <0>         0.0000
     32 H11        -3.8303    0.2205    0.0000 HC        1 <0>         0.0000
     33 H12        -3.1157   -0.1920    0.0000 HC        1 <0>         0.0000
     34 H13        -3.1157   -0.1920    0.0000 HC        1 <0>         0.0000
     35 H14        -2.4012    0.2205    0.0000 HC        1 <0>         0.0000
     36 H15        -2.4012    0.2205    0.0000 HC        1 <0>         0.0000
     37 H16        -1.6866   -0.1920    0.0000 H1        1 <0>         0.0000
     38 H17        -1.6866   -0.1920    0.0000 H1        1 <0>         0.0000
     39 H18        -0.2576   -0.1920    0.0000 H1        1 <0>         0.0000
     40 H19        -0.2576   -0.1920    0.0000 H1        1 <0>         0.0000
     41 H20         0.4569    0.2205    0.0000 H1        1 <0>         0.0000
     42 H21         0.4569    0.2205    0.0000 H1        1 <0>         0.0000
     43 H22         1.8859    0.2205    0.0000 H1        1 <0>         0.0000
     44 H23         1.8859    0.2205    0.0000 H1        1 <0>         0.0000
     45 H24         2.6005   -0.1920    0.0000 H1        1 <0>         0.0000
     46 H25         2.6005   -0.1920    0.0000 H1        1 <0>         0.0000
     47 H26         4.0295   -0.1920    0.0000 H1        1 <0>         0.0000
     48 H27         4.0295   -0.1920    0.0000 H1        1 <0>         0.0000
     49 H28         4.7441    0.2205    0.0000 H1        1 <0>         0.0000
     50 H29         4.7441    0.2205    0.0000 H1        1 <0>         0.0000
     51 H30         6.1731    0.2205    0.0000 H1        1 <0>         0.0000
     52 H31         6.1731    0.2205    0.0000 H1        1 <0>         0.0000
     53 H32         6.8876   -0.1920    0.0000 H1        1 <0>         0.0000
     54 H33         6.8876   -0.1920    0.0000 H1        1 <0>         0.0000
     55 H34         7.6022    0.2205    0.0000 HO        1 <0>         0.0000
@<TRIPOS>BOND
     1    1    2 1
     2    2    3 1
     3    3    4 1
     4    4    5 1
     5    5    6 1
     6    6    7 1
     7    7    8 1
     8    8    9 1
     9    9   10 1
    10   10   11 1
    11   11   12 1
    12   12   13 1
    13   13   14 1
    14   14   15 1
    15   15   16 1
    16   16   17 1
    17   17   18 1
    18   18   19 1
    19   19   20 1
    20   20   21 1
    21    1   22 1
    22    1   23 1
    23    1   24 1
    24    2   25 1
    25    2   26 1
    26    3   27 1
    27    3   28 1
    28    4   29 1
    29    4   30 1
    30    5   31 1
    31    5   32 1
    32    6   33 1
    33    6   34 1
    34    7   35 1
    35    7   36 1
    36    8   37 1
    37    8   38 1
    38   10   39 1
    39   10   40 1
    40   11   41 1
    41   11   42 1
    42   13   43 1
    43   13   44 1
    44   14   45 1
    45   14   46 1
    46   16   47 1
    47   16   48 1
    48   17   49 1
    49   17   50 1
    50   19   51 1
    51   19   52 1
    52   20   53 1
    53   20   54 1
    54   21   55 1
@<TRIPOS>MOLECULE
*****
   61    63     0     0     0
SMALL
NO_CHARGES

@<TRIPOS>ATOM
      1 C1         -4.9500   -3.2408    0.0000 CT        1 <0>         0.0000
      2 C2         -4.5375   -2.5263    0.0000 CT        1 <0>         0.0000
      3 C3         -3.7125   -2.5263    0.0000 CT        1 <0>         0.0000
      4 C4         -3.3000   -3.2408    0.0000 CT        1 <0>         0.0000
      5 C5         -3.3000   -1.8118    0.0000 CA        1 <0>         0.0000
      6 C6         -2.4750   -1.8118    0.0000 CA        1 <0>         0.0000
      7 O1         -2.0625   -2.5263    0.0000 OH        1 <0>         0.0000
      8 C7         -2.0625   -1.0974    0.0000 CB        1 <0>         0.0000
      9 C8         -1.2375   -1.0974    0.0000 CA        1 <0>         0.0000
     10 O2         -0.8250   -1.8118    0.0000 OH        1 <0>         0.0000
     11 C9         -0.8250   -0.3829    0.0000 CA        1 <0>         0.0000
     12 C10        -1.2375    0.3316    0.0000 CA        1 <0>         0.0000
     13 C11        -0.8250    1.0461    0.0000 CT        1 <0>         0.0000
     14 C12         0.0000    1.0461    0.0000 CT        1 <0>         0.0000
     15 C13         0.4125    0.3316    0.0000 CT        1 <0>         0.0000
     16 C14         0.0000   -0.3829    0.0000 C         1 <0>         0.0000
     17 O3          0.4125   -1.0974    0.0000 O         1 <0>         0.0000
     18 C15         0.4125    1.7605    0.0000 CT        1 <0>         0.0000
     19 O4          0.0000    2.4750    0.0000 OS        1 <0>         0.0000
     20 C16         0.4125    3.1895    0.0000 CT        1 <0>         0.0000
     21 C17         1.2375    1.7605    0.0000 C         1 <0>         0.0000
     22 O5          1.6500    1.0461    0.0000 O         1 <0>         0.0000
     23 C18         1.6500    2.4750    0.0000 CT        1 <0>         0.0000
     24 O6          1.2375    3.1895    0.0000 OH        1 <0>         0.0000
     25 C19         2.4750    2.4750    0.0000 CT        1 <0>         0.0000
     26 C20         2.8875    3.1895    0.0000 CT        1 <0>         0.0000
     27 O7          2.8875    1.7605    0.0000 OH        1 <0>         0.0000
     28 C21        -2.0625    0.3316    0.0000 CA        1 <0>         0.0000
     29 C22        -2.4750   -0.3829    0.0000 CB        1 <0>         0.0000
     30 C23        -3.3000   -0.3829    0.0000 CA        1 <0>         0.0000
     31 C24        -3.7125   -1.0974    0.0000 CA        1 <0>         0.0000
     32 H1         -4.9500   -3.2408    0.0000 HC        1 <0>         0.0000
     33 H2         -4.9500   -3.2408    0.0000 HC        1 <0>         0.0000
     34 H3         -4.9500   -3.2408    0.0000 HC        1 <0>         0.0000
     35 H4         -4.5375   -2.5263    0.0000 HC        1 <0>         0.0000
     36 H5         -4.5375   -2.5263    0.0000 HC        1 <0>         0.0000
     37 H6         -3.7125   -2.5263    0.0000 HC        1 <0>         0.0000
     38 H7         -3.3000   -3.2408    0.0000 HC        1 <0>         0.0000
     39 H8         -3.3000   -3.2408    0.0000 HC        1 <0>         0.0000
     40 H9         -3.3000   -3.2408    0.0000 HC        1 <0>         0.0000
     41 H10        -2.0625   -2.5263    0.0000 HO        1 <0>         0.0000
     42 H11        -0.8250   -1.8118    0.0000 HO        1 <0>         0.0000
     43 H12        -0.8250    1.0461    0.0000 HC        1 <0>         0.0000
     44 H13        -0.8250    1.0461    0.0000 HC        1 <0>         0.0000
     45 H14         0.0000    1.0461    0.0000 HC        1 <0>         0.0000
     46 H15         0.4125    0.3316    0.0000 HC        1 <0>         0.0000
     47 H16         0.4125    0.3316    0.0000 HC        1 <0>         0.0000
     48 H17         0.4125    1.7605    0.0000 H1        1 <0>         0.0000
     49 H18         0.4125    3.1895    0.0000 H1        1 <0>         0.0000
     50 H19         0.4125    3.1895    0.0000 H1        1 <0>         0.0000
     51 H20         0.4125    3.1895    0.0000 H1        1 <0>         0.0000
     52 H21         1.6500    2.4750    0.0000 H1        1 <0>         0.0000
     53 H22         1.2375    3.1895    0.0000 HO        1 <0>         0.0000
     54 H23         2.4750    2.4750    0.0000 H1        1 <0>         0.0000
     55 H24         2.8875    3.1895    0.0000 HC        1 <0>         0.0000
     56 H25         2.8875    3.1895    0.0000 HC        1 <0>         0.0000
     57 H26         2.8875    3.1895    0.0000 HC        1 <0>         0.0000
     58 H27         2.8875    1.7605    0.0000 HO        1 <0>         0.0000
     59 H28        -2.0625    0.3316    0.0000 HA        1 <0>         0.0000
     60 H29        -3.3000   -0.3829    0.0000 HA        1 <0>         0.0000
     61 H30        -3.7125   -1.0974    0.0000 HA        1 <0>         0.0000
@<TRIPOS>BOND
     1    1    2 1
     2    2    3 1
     3    3    4 1
     4    3    5 1
     5    5    6 ar
     6    6    7 1
     7    6    8 ar
     8    8    9 ar
     9    9   10 1
    10    9   11 ar
    11   11   12 ar
    12   12   13 1
    13   13   14 1
    14   14   15 1
    15   15   16 1
    16   11   16 1
    17   16   17 2
    18   14   18 1
    19   18   19 1
    20   19   20 1
    21   18   21 1
    22   21   22 2
    23   21   23 1
    24   23   24 1
    25   23   25 1
    26   25   26 1
    27   25   27 1
    28   12   28 ar
    29   28   29 ar
    30    8   29 ar
    31   29   30 ar
    32   30   31 ar
    33    5   31 ar
    34    1   32 1
    35    1   33 1
    36    1   34 1
    37    2   35 1
    38    2   36 1
    39    3   37 1
    40    4   38 1
    41    4   39 1
    42    4   40 1
    43    7   41 1
    44   10   42 1
    45   13   43 1
    46   13   44 1
    47   14   45 1
    48   15   46 1
    49   15   47 1
    50   18   48 1
    51   20   49 1
    52   20   50 1
    53   20   51 1
    54   23   52 1
    55   24   53 1
    56   25   54 1
    57   26   55 1
    58   26   56 1
    59   26   57 1
    60   27   58 1
    61   28   59 1
    62   30   60 1
    63   31   61 1
@<TRIPOS>MOLECULE
4-Hydroxybenzoic acid
   16    16     0     0     0
SMALL
NO_CHARGES

@<TRIPOS>ATOM
      1 O1          0.0000    2.4750    0.0000 OH        1 <0>         0.0000
      2 C1          0.7145    2.0625    0.0000 C         1 <0>         0.0000
      3 O2          1.4289    2.4750    0.0000 O         1 <0>         0.0000
      4 C2          0.7145    1.2375    0.0000 CA        1 <0>         0.0000
      5 C3          1.4289    0.8250    0.0000 CA        1 <0>         0.0000
      6 C4          1.4289    0.0000    0.0000 CA        1 <0>         0.0000
      7 C5          0.7145   -0.4125    0.0000 CA        1 <0>         0.0000
      8 O3          0.7145   -1.2375    0.0000 OH        1 <0>         0.0000
      9 C6          0.0000    0.0000    0.0000 CA        1 <0>         0.0000
     10 C7          0.0000    0.8250    0.0000 CA        1 <0>         0.0000
     11 H1          0.0000    2.4750    0.0000 HO        1 <0>         0.0000
     12 H2          1.4289    0.8250    0.0000 HA        1 <0>         0.0000
     13 H3          1.4289    0.0000    0.0000 HA        1 <0>         0.0000
     14 H4          0.7145   -1.2375    0.0000 HO        1 <0>         0.0000
     15 H5          0.0000    0.0000    0.0000 HA        1 <0>         0.0000
     16 H6          0.0000    0.8250    0.0000 HA        1 <0>         0.0000
@<TRIPOS>BOND
     1    1    2 1
     2    2    3 2
     3    2    4 1
     4    4    5 ar
     5    5    6 ar
     6    6    7 ar
     7    7    8 1
     8    7    9 ar
     9    9   10 ar
    10    4   10 ar
    11    1   11 1
    12    5   12 1
    13    6   13 1
    14    8   14 1
    15    9   15 1
    16   10   16 1
@<TRIPOS>MOLECULE
*****
   48    47     0     0     0
SMALL
NO_CHARGES

@<TRIPOS>ATOM
      1 C1         -2.7177    2.5559    0.0000 CT        1 <0>         0.0000
      2 C2         -2.0033    2.1434    0.0000 CT        1 <0>         0.0000
      3 C3         -1.2888    2.5559    0.0000 CT        1 <0>         0.0000
      4 C4         -0.5743    2.1434    0.0000 CT        1 <0>         0.0000
      5 C5          0.1401    2.5559    0.0000 CT        1 <0>         0.0000
      6 C6          0.8546    2.1434    0.0000 CT        1 <0>         0.0000
      7 C7          1.5691    2.5559    0.0000 CM        1 <0>         0.0000
      8 C8          2.2836    2.1434    0.0000 CM        1 <0>         0.0000
      9 C9          2.9980    2.5559    0.0000 CT        1 <0>         0.0000
     10 C10         3.7125    2.1434    0.0000 CT        1 <0>         0.0000
     11 C11         4.4270    2.5559    0.0000 CT        1 <0>         0.0000
     12 C12         5.1414    2.1434    0.0000 CT        1 <0>         0.0000
     13 C13         5.8559    2.5559    0.0000 CT        1 <0>         0.0000
     14 C14         6.5704    2.1434    0.0000 CT        1 <0>         0.0000
     15 C15         7.2849    2.5559    0.0000 CT        1 <0>         0.0000
     16 C16         7.9993    2.1434    0.0000 C         1 <0>         0.0000
     17 O1          8.7138    2.5559    0.0000 OH        1 <0>         0.0000
     18 O2          7.9993    1.3184    0.0000 O         1 <0>         0.0000
     19 H1         -2.7177    2.5559    0.0000 HC        1 <0>         0.0000
     20 H2         -2.7177    2.5559    0.0000 HC        1 <0>         0.0000
     21 H3         -2.7177    2.5559    0.0000 HC        1 <0>         0.0000
     22 H4         -2.0033    2.1434    0.0000 HC        1 <0>         0.0000
     23 H5         -2.0033    2.1434    0.0000 HC        1 <0>         0.0000
     24 H6         -1.2888    2.5559    0.0000 HC        1 <0>         0.0000
     25 H7         -1.2888    2.5559    0.0000 HC        1 <0>         0.0000
     26 H8         -0.5743    2.1434    0.0000 HC        1 <0>         0.0000
     27 H9         -0.5743    2.1434    0.0000 HC        1 <0>         0.0000
     28 H10         0.1401    2.5559    0.0000 HC        1 <0>         0.0000
     29 H11         0.1401    2.5559    0.0000 HC        1 <0>         0.0000
     30 H12         0.8546    2.1434    0.0000 HC        1 <0>         0.0000
     31 H13         0.8546    2.1434    0.0000 HC        1 <0>         0.0000
     32 H14         1.5691    2.5559    0.0000 HA        1 <0>         0.0000
     33 H15         2.2836    2.1434    0.0000 HA        1 <0>         0.0000
     34 H16         2.9980    2.5559    0.0000 HC        1 <0>         0.0000
     35 H17         2.9980    2.5559    0.0000 HC        1 <0>         0.0000
     36 H18         3.7125    2.1434    0.0000 HC        1 <0>         0.0000
     37 H19         3.7125    2.1434    0.0000 HC        1 <0>         0.0000
     38 H20         4.4270    2.5559    0.0000 HC        1 <0>         0.0000
     39 H21         4.4270    2.5559    0.0000 HC        1 <0>         0.0000
     40 H22         5.1414    2.1434    0.0000 HC        1 <0>         0.0000
     41 H23         5.1414    2.1434    0.0000 HC        1 <0>         0.0000
     42 H24         5.8559    2.5559    0.0000 HC        1 <0>         0.0000
     43 H25         5.8559    2.5559    0.0000 HC        1 <0>         0.0000
     44 H26         6.5704    2.1434    0.0000 HC        1 <0>         0.0000
     45 H27         6.5704    2.1434    0.0000 HC        1 <0>         0.0000
     46 H28         7.2849    2.5559    0.0000 HC        1 <0>         0.0000
     47 H29         7.2849    2.5559    0.0000 HC        1 <0>         0.0000
     48 H30         8.7138    2.5559    0.0000 HO        1 <0>         0.0000
@<TRIPOS>BOND
     1    1    2 1
     2    2    3 1
     3    3    4 1
     4    4    5 1
     5    5    6 1
     6    6    7 1
     7    7    8 2
     8    8    9 1
     9    9   10 1
    10   10   11 1
    11   11   12 1
    12   12   13 1
    13   13   14 1
    14   14   15 1
    15   15   16 1
    16   16   17 1
    17   16   18 2
    18    1   19 1
    19    1   20 1
    20    1   21 1
    21    2   22 1
    22    2   23 1
    23    3   24 1
    24    3   25 1
    25    4   26 1
    26    4   27 1
    27    5   28 1
    28    5   29 1
    29    6   30 1
    30    6   31 1
    31    7   32 1
    32    8   33 1
    33    9   34 1
    34    9   35 1
    35   10   36 1
    36   10   37 1
    37   11   38 1
    38   11   39 1
    39   12   40 1
    40   12   41 1
    41   13   42 1
    42   13   43 1
    43   14   44 1
    44   14   45 1
    45   15   46 1
    46   15   47 1
    47   17   48 1
@<TRIPOS>MOLECULE
*****
   79    81     0     0     0
SMALL
NO_CHARGES

@<TRIPOS>ATOM
      1 C1         -1.9025    0.7438    0.0000 CT        1 <0>         0.0000
      2 C2         -2.7857   -1.9742    0.0000 CT        1 <0>         0.0000
      3 C3          1.4358   -0.5422    0.0000 CT        1 <0>         0.0000
      4 C4          4.7812    4.4104    0.0000 CM        1 <0>         0.0000
      5 C5          1.8371    0.2900    0.0000 CT        1 <0>         0.0000
      6 C6         -2.5156    0.1917    0.0000 CT        1 <0>         0.0000
      7 C7         -2.1726   -1.4222    0.0000 CT        1 <0>         0.0000
      8 C8         -0.1781   -0.8853    0.0000 CM        1 <0>         0.0000
      9 C9         -0.9851   -1.0568    0.0000 CM        1 <0>         0.0000
     10 C10         3.3523    1.1104    0.0000 CT        1 <0>         0.0000
     11 C11         0.0768   -0.1006    0.0000 CM        1 <0>         0.0000
     12 C12         3.3523    1.9354    0.0000 CT        1 <0>         0.0000
     13 C13         2.6378    3.1729    0.0000 CM        1 <0>         0.0000
     14 C14         3.3523    3.5854    0.0000 CM        1 <0>         0.0000
     15 C15         0.6538    1.5229    0.0000 CT        1 <0>         0.0000
     16 C16         1.1387    2.1904    0.0000 CT        1 <0>         0.0000
     17 C17         2.6378    0.6979    0.0000 CT        1 <0>         0.0000
     18 C18        -1.5371   -0.4437    0.0000 CM        1 <0>         0.0000
     19 C19         2.6378    4.8229    0.0000 CT        1 <0>         0.0000
     20 C20         3.3523    6.0604    0.0000 CT        1 <0>         0.0000
     21 C21         0.8838    0.0709    0.0000 CT        1 <0>         0.0000
     22 C22         4.0668    4.8229    0.0000 CM        1 <0>         0.0000
     23 C23         2.6378    2.3479    0.0000 CM        1 <0>         0.0000
     24 C24         3.3523    4.4104    0.0000 CM        1 <0>         0.0000
     25 C25         2.6378    5.6479    0.0000 CT        1 <0>         0.0000
     26 C26         1.1387    0.8555    0.0000 CT        1 <0>         0.0000
     27 C27         1.9233    1.9354    0.0000 CT        1 <0>         0.0000
     28 C28         4.0668    5.6479    0.0000 CT        1 <0>         0.0000
     29 C29         1.9233    1.1104    0.0000 CT        1 <0>         0.0000
     30 C30        -2.3441   -0.6152    0.0000 CT        1 <0>         0.0000
     31 O1          1.9233    6.0604    0.0000 OH        1 <0>         0.0000
     32 O2          4.7812    6.0604    0.0000 OH        1 <0>         0.0000
     33 O3         -3.1511   -0.7868    0.0000 OH        1 <0>         0.0000
     34 H1          0.3739   -1.4984    0.0000 HA        1 <0>         0.0000
     35 H2         -1.2400   -1.8414    0.0000 HA        1 <0>         0.0000
     36 H3         -0.4752    0.5124    0.0000 HA        1 <0>         0.0000
     37 H4          1.9233    3.5854    0.0000 HA        1 <0>         0.0000
     38 H5          4.0668    3.1729    0.0000 HA        1 <0>         0.0000
     39 H6         -1.2822    0.3409    0.0000 HA        1 <0>         0.0000
     40 H7          0.6288   -0.7137    0.0000 HC        1 <0>         0.0000
     41 H8          1.9233    5.2354    0.0000 H1        1 <0>         0.0000
     42 H9          0.3239    0.7264    0.0000 HC        1 <0>         0.0000
     43 H10         1.8371    2.7559    0.0000 HC        1 <0>         0.0000
     44 H11         4.0668    6.4729    0.0000 H1        1 <0>         0.0000
     45 H12        -1.9025    0.7438    0.0000 HC        1 <0>         0.0000
     46 H13        -1.9025    0.7438    0.0000 HC        1 <0>         0.0000
     47 H14        -1.9025    0.7438    0.0000 HC        1 <0>         0.0000
     48 H15        -2.7857   -1.9742    0.0000 HC        1 <0>         0.0000
     49 H16        -2.7857   -1.9742    0.0000 HC        1 <0>         0.0000
     50 H17        -2.7857   -1.9742    0.0000 HC        1 <0>         0.0000
     51 H18         1.4358   -0.5422    0.0000 HC        1 <0>         0.0000
     52 H19         1.4358   -0.5422    0.0000 HC        1 <0>         0.0000
     53 H20         1.4358   -0.5422    0.0000 HC        1 <0>         0.0000
     54 H21         4.7812    4.4104    0.0000 HA        1 <0>         0.0000
     55 H22         4.7812    4.4104    0.0000 HA        1 <0>         0.0000
     56 H23         1.8371    0.2900    0.0000 HC        1 <0>         0.0000
     57 H24         1.8371    0.2900    0.0000 HC        1 <0>         0.0000
     58 H25         1.8371    0.2900    0.0000 HC        1 <0>         0.0000
     59 H26        -2.5156    0.1917    0.0000 HC        1 <0>         0.0000
     60 H27        -2.5156    0.1917    0.0000 HC        1 <0>         0.0000
     61 H28        -2.1726   -1.4222    0.0000 HC        1 <0>         0.0000
     62 H29        -2.1726   -1.4222    0.0000 HC        1 <0>         0.0000
     63 H30         3.3523    1.1104    0.0000 HC        1 <0>         0.0000
     64 H31         3.3523    1.1104    0.0000 HC        1 <0>         0.0000
     65 H32         3.3523    1.9354    0.0000 HC        1 <0>         0.0000
     66 H33         3.3523    1.9354    0.0000 HC        1 <0>         0.0000
     67 H34         0.6538    1.5229    0.0000 HC        1 <0>         0.0000
     68 H35         0.6538    1.5229    0.0000 HC        1 <0>         0.0000
     69 H36         1.1387    2.1904    0.0000 HC        1 <0>         0.0000
     70 H37         1.1387    2.1904    0.0000 HC        1 <0>         0.0000
     71 H38         2.6378    0.6979    0.0000 HC        1 <0>         0.0000
     72 H39         2.6378    0.6979    0.0000 HC        1 <0>         0.0000
     73 H40         2.6378    4.8229    0.0000 HC        1 <0>         0.0000
     74 H41         2.6378    4.8229    0.0000 HC        1 <0>         0.0000
     75 H42         3.3523    6.0604    0.0000 HC        1 <0>         0.0000
     76 H43         3.3523    6.0604    0.0000 HC        1 <0>         0.0000
     77 H44         1.9233    6.0604    0.0000 HO        1 <0>         0.0000
     78 H45         4.7812    6.0604    0.0000 HO        1 <0>         0.0000
     79 H46        -3.1511   -0.7868    0.0000 HO        1 <0>         0.0000
@<TRIPOS>BOND
     1    1    6 1
     2    2    7 1
     3    8    9 1
     4    8   11 2
     5   10   12 1
     6   13   14 1
     7   15   16 1
     8   10   17 1
     9    9   18 2
    10    3   21 1
    11   11   21 1
    12    4   22 2
    13   12   23 1
    14   13   23 2
    15   14   24 2
    16   19   24 1
    17   22   24 1
    18   19   25 1
    19   20   25 1
    20   15   26 1
    21   21   26 1
    22   16   27 1
    23   23   27 1
    24   20   28 1
    25   22   28 1
    26    5   29 1
    27   17   29 1
    28   26   29 1
    29   27   29 1
    30    6   30 1
    31    7   30 1
    32   18   30 1
    33   25   31 1
    34   28   32 1
    35   30   33 1
    36    8   34 1
    37    9   35 1
    38   11   36 1
    39   13   37 1
    40   14   38 1
    41   18   39 1
    42   21   40 1
    43   25   41 1
    44   26   42 1
    45   27   43 1
    46   28   44 1
    47    1   45 1
    48    1   46 1
    49    1   47 1
    50    2   48 1
    51    2   49 1
    52    2   50 1
    53    3   51 1
    54    3   52 1
    55    3   53 1
    56    4   54 1
    57    4   55 1
    58    5   56 1
    59    5   57 1
    60    5   58 1
    61    6   59 1
    62    6   60 1
    63    7   61 1
    64    7   62 1
    65   10   63 1
    66   10   64 1
    67   12   65 1
    68   12   66 1
    69   15   67 1
    70   15   68 1
    71   16   69 1
    72   16   70 1
    73   17   71 1
    74   17   72 1
    75   19   73 1
    76   19   74 1
    77   20   75 1
    78   20   76 1
    79   31   77 1
    80   32   78 1
    81   33   79 1
@<TRIPOS>MOLECULE
*****
   21    20     0     0     0
SMALL
NO_CHARGES

@<TRIPOS>ATOM
      1 C1          0.0000    0.8250    0.0000 C         1 <0>         0.0000
      2 O1         -0.7145    1.2375    0.0000 O         1 <0>         0.0000
      3 O2          0.7145    1.2375    0.0000 OH        1 <0>         0.0000
      4 C2          1.4289    0.0000    0.0000 C         1 <0>         0.0000
      5 O3          1.4289    0.8250    0.0000 O         1 <0>         0.0000
      6 O4          2.1434   -0.4125    0.0000 OH        1 <0>         0.0000
      7 O5         -1.4290    0.8250    0.0000 O         1 <0>         0.0000
      8 C3         -1.4290    0.0000    0.0000 C         1 <0>         0.0000
      9 O6         -2.1434   -0.4125    0.0000 OH        1 <0>         0.0000
     10 C4         -0.7145   -0.4125    0.0000 CT        1 <0>         0.0000
     11 C5          0.7145   -0.4125    0.0000 CT        1 <0>         0.0000
     12 C6          0.0000    0.0000    0.0000 CT        1 <0>         0.0000
     13 O7          0.0000   -0.8250    0.0000 OH        1 <0>         0.0000
     14 H1          0.7145    1.2375    0.0000 HO        1 <0>         0.0000
     15 H2          2.1434   -0.4125    0.0000 HO        1 <0>         0.0000
     16 H3         -2.1434   -0.4125    0.0000 HO        1 <0>         0.0000
     17 H4         -0.7145   -0.4125    0.0000 HC        1 <0>         0.0000
     18 H5         -0.7145   -0.4125    0.0000 HC        1 <0>         0.0000
     19 H6          0.7145   -0.4125    0.0000 HC        1 <0>         0.0000
     20 H7          0.7145   -0.4125    0.0000 HC        1 <0>         0.0000
     21 H8          0.0000   -0.8250    0.0000 HO        1 <0>         0.0000
@<TRIPOS>BOND
     1    4   11 1
     2    1    2 2
     3    1    3 1
     4    4    5 2
     5    4    6 1
     6    7    8 2
     7    8   10 1
     8    8    9 1
     9   10   12 1
    10   11   12 1
    11    1   12 1
    12   12   13 1
    13    3   14 1
    14    6   15 1
    15    9   16 1
    16   10   17 1
    17   10   18 1
    18   11   19 1
    19   11   20 1
    20   13   21 1
@<TRIPOS>MOLECULE
*****
   30    32     0     0     0
SMALL
NO_CHARGES

@<TRIPOS>ATOM
      1 O1          0.0000   -1.6500    0.0000 OH        1 <0>         0.0000
      2 C1          0.7145   -1.2375    0.0000 CA        1 <0>         0.0000
      3 C2          0.7145   -0.4125    0.0000 CA        1 <0>         0.0000
      4 C3          1.4289    0.0000    0.0000 CA        1 <0>         0.0000
      5 C4          2.1434   -0.4125    0.0000 CA        1 <0>         0.0000
      6 C5          2.8579    0.0000    0.0000 C         1 <0>         0.0000
      7 O2          2.8579    0.8250    0.0000 O         1 <0>         0.0000
      8 C6          3.5724   -0.4125    0.0000 CT        1 <0>         0.0000
      9 C7          3.5724   -1.2375    0.0000 CT        1 <0>         0.0000
     10 O3          2.8579   -1.6500    0.0000 OS        1 <0>         0.0000
     11 C8          2.1434   -1.2375    0.0000 CA        1 <0>         0.0000
     12 C9          1.4289   -1.6500    0.0000 CA        1 <0>         0.0000
     13 C10         4.2868   -1.6500    0.0000 CA        1 <0>         0.0000
     14 C11         5.0013   -1.2375    0.0000 CA        1 <0>         0.0000
     15 C12         5.7158   -1.6500    0.0000 CA        1 <0>         0.0000
     16 C13         5.7158   -2.4750    0.0000 CA        1 <0>         0.0000
     17 C14         5.0013   -2.8875    0.0000 CA        1 <0>         0.0000
     18 C15         4.2868   -2.4750    0.0000 CA        1 <0>         0.0000
     19 H1          0.0000   -1.6500    0.0000 HO        1 <0>         0.0000
     20 H2          0.7145   -0.4125    0.0000 HA        1 <0>         0.0000
     21 H3          1.4289    0.0000    0.0000 HA        1 <0>         0.0000
     22 H4          3.5724   -0.4125    0.0000 HC        1 <0>         0.0000
     23 H5          3.5724   -0.4125    0.0000 HC        1 <0>         0.0000
     24 H6          3.5724   -1.2375    0.0000 H1        1 <0>         0.0000
     25 H7          1.4289   -1.6500    0.0000 HA        1 <0>         0.0000
     26 H8          5.0013   -1.2375    0.0000 HA        1 <0>         0.0000
     27 H9          5.7158   -1.6500    0.0000 HA        1 <0>         0.0000
     28 H10         5.7158   -2.4750    0.0000 HA        1 <0>         0.0000
     29 H11         5.0013   -2.8875    0.0000 HA        1 <0>         0.0000
     30 H12         4.2868   -2.4750    0.0000 HA        1 <0>         0.0000
@<TRIPOS>BOND
     1    1    2 1
     2    2    3 ar
     3    3    4 ar
     4    4    5 ar
     5    5    6 1
     6    6    7 2
     7    6    8 1
     8    8    9 1
     9    9   10 1
    10   10   11 1
    11    5   11 ar
    12   11   12 ar
    13    2   12 ar
    14    9   13 1
    15   13   14 ar
    16   14   15 ar
    17   15   16 ar
    18   16   17 ar
    19   17   18 ar
    20   13   18 ar
    21    1   19 1
    22    3   20 1
    23    4   21 1
    24    8   22 1
    25    8   23 1
    26    9   24 1
    27   12   25 1
    28   14   26 1
    29   15   27 1
    30   16   28 1
    31   17   29 1
    32   18   30 1
@<TRIPOS>MOLECULE
*****
   24    23     0     0     0
SMALL
NO_CHARGES

@<TRIPOS>ATOM
      1 C1          2.6664   -2.3645    0.0000 CT        1 <0>         0.0000
      2 C2          1.9520   -1.9520    0.0000 CT        1 <0>         0.0000
      3 C3          1.2375   -2.3645    0.0000 CT        1 <0>         0.0000
      4 C4          1.9520   -1.1270    0.0000 CT        1 <0>         0.0000
      5 C5          1.2375   -0.7145    0.0000 CT        1 <0>         0.0000
      6 O1          0.5230   -1.1270    0.0000 OH        1 <0>         0.0000
      7 C6          1.2375    0.1105    0.0000 C         1 <0>         0.0000
      8 O2          0.5230    0.5230    0.0000 OH        1 <0>         0.0000
      9 O3          1.9520    0.5230    0.0000 O         1 <0>         0.0000
     10 C7          2.6664   -0.7145    0.0000 C         1 <0>         0.0000
     11 O4          2.6664    0.1105    0.0000 OH        1 <0>         0.0000
     12 O5          3.3809   -1.1270    0.0000 O         1 <0>         0.0000
     13 H1          2.6664   -2.3645    0.0000 HC        1 <0>         0.0000
     14 H2          2.6664   -2.3645    0.0000 HC        1 <0>         0.0000
     15 H3          2.6664   -2.3645    0.0000 HC        1 <0>         0.0000
     16 H4          1.9520   -1.9520    0.0000 HC        1 <0>         0.0000
     17 H5          1.2375   -2.3645    0.0000 HC        1 <0>         0.0000
     18 H6          1.2375   -2.3645    0.0000 HC        1 <0>         0.0000
     19 H7          1.2375   -2.3645    0.0000 HC        1 <0>         0.0000
     20 H8          1.9520   -1.1270    0.0000 HC        1 <0>         0.0000
     21 H9          1.2375   -0.7145    0.0000 H1        1 <0>         0.0000
     22 H10         0.5230   -1.1270    0.0000 HO        1 <0>         0.0000
     23 H11         0.5230    0.5230    0.0000 HO        1 <0>         0.0000
     24 H12         2.6664    0.1105    0.0000 HO        1 <0>         0.0000
@<TRIPOS>BOND
     1    1    2 1
     2    2    3 1
     3    2    4 1
     4    4    5 1
     5    5    6 1
     6    5    7 1
     7    7    8 1
     8    7    9 2
     9    4   10 1
    10   10   11 1
    11   10   12 2
    12    1   13 1
    13    1   14 1
    14    1   15 1
    15    2   16 1
    16    3   17 1
    17    3   18 1
    18    3   19 1
    19    4   20 1
    20    5   21 1
    21    6   22 1
    22    8   23 1
    23   11   24 1
@<TRIPOS>MOLECULE
*****
   20    20     0     0     0
SMALL
NO_CHARGES

@<TRIPOS>ATOM
      1 O1         -1.4289   -1.6500    0.0000 OH        1 <0>         0.0000
      2 C1         -0.7145   -1.2375    0.0000 CT        1 <0>         0.0000
      3 C2         -0.7145   -0.4125    0.0000 CT        1 <0>         0.0000
      4 O2          0.0000    0.0000    0.0000 OS        1 <0>         0.0000
      5 C3          0.7145   -0.4125    0.0000 CT        1 <0>         0.0000
      6 O3          1.4289    0.0000    0.0000 OH        1 <0>         0.0000
      7 C4          0.7145   -1.2375    0.0000 CT        1 <0>         0.0000
      8 O4          1.4289   -1.6500    0.0000 OH        1 <0>         0.0000
      9 C5          0.0000   -1.6500    0.0000 CT        1 <0>         0.0000
     10 O5          0.0000   -2.4750    0.0000 OH        1 <0>         0.0000
     11 H1         -1.4289   -1.6500    0.0000 HO        1 <0>         0.0000
     12 H2         -0.7145   -1.2375    0.0000 H1        1 <0>         0.0000
     13 H3         -0.7145   -0.4125    0.0000 H1        1 <0>         0.0000
     14 H4         -0.7145   -0.4125    0.0000 H1        1 <0>         0.0000
     15 H5          0.7145   -0.4125    0.0000 H2        1 <0>         0.0000
     16 H6          1.4289    0.0000    0.0000 HO        1 <0>         0.0000
     17 H7          0.7145   -1.2375    0.0000 H1        1 <0>         0.0000
     18 H8          1.4289   -1.6500    0.0000 HO        1 <0>         0.0000
     19 H9          0.0000   -1.6500    0.0000 H1        1 <0>         0.0000
     20 H10         0.0000   -2.4750    0.0000 HO        1 <0>         0.0000
@<TRIPOS>BOND
     1    1    2 1
     2    2    3 1
     3    3    4 1
     4    4    5 1
     5    5    6 1
     6    5    7 1
     7    7    8 1
     8    7    9 1
     9    2    9 1
    10    9   10 1
    11    1   11 1
    12    2   12 1
    13    3   13 1
    14    3   14 1
    15    5   15 1
    16    6   16 1
    17    7   17 1
    18    8   18 1
    19    9   19 1
    20   10   20 1
@<TRIPOS>MOLECULE
D-Xylose.mol
   12    11     0     0     0
SMALL
NO_CHARGES

@<TRIPOS>ATOM
      1 C1          0.8250    0.0000    0.0000 C         1 <0>         0.0000
      2 C2          0.4125   -0.7145    0.0000 CM        1 <0>         0.0000
      3 C3         -0.4125   -0.7145    0.0000 CM        1 <0>         0.0000
      4 C4         -0.8250    0.0000    0.0000 C         1 <0>         0.0000
      5 O1          0.4125    0.7145    0.0000 O         1 <0>         0.0000
      6 O2          1.6500    0.0000    0.0000 OH        1 <0>         0.0000
      7 O3         -1.6500    0.0000    0.0000 O         1 <0>         0.0000
      8 O4         -0.4125    0.7145    0.0000 OH        1 <0>         0.0000
      9 H1          0.4125   -0.7145    0.0000 HA        1 <0>         0.0000
     10 H2         -0.4125   -0.7145    0.0000 HA        1 <0>         0.0000
     11 H3          1.6500    0.0000    0.0000 HO        1 <0>         0.0000
     12 H4         -0.4125    0.7145    0.0000 HO        1 <0>         0.0000
@<TRIPOS>BOND
     1    1    2 1
     2    2    3 2
     3    3    4 1
     4    1    5 2
     5    1    6 1
     6    4    7 2
     7    4    8 1
     8    2    9 1
     9    3   10 1
    10    6   11 1
    11    8   12 1
@<TRIPOS>MOLECULE
*****
   25    24     0     0     0
SMALL
NO_CHARGES

@<TRIPOS>ATOM
      1 O1          1.0461    1.4289    0.0000 OH        1 <0>         0.0000
      2 C1          1.7605    1.8414    0.0000 CT        1 <0>         0.0000
      3 C2          2.4750    1.4289    0.0000 CT        1 <0>         0.0000
      4 O2          2.4750    0.6039    0.0000 OH        1 <0>         0.0000
      5 C3          3.1895    1.8414    0.0000 CT        1 <0>         0.0000
      6 O3          3.1895    2.6664    0.0000 OH        1 <0>         0.0000
      7 C4          3.9039    1.4289    0.0000 CT        1 <0>         0.0000
      8 O4          3.9039    0.6039    0.0000 OH        1 <0>         0.0000
      9 C5          4.6184    1.8414    0.0000 CT        1 <0>         0.0000
     10 O5          4.6184    2.6664    0.0000 OH        1 <0>         0.0000
     11 C6          5.3329    1.4289    0.0000 C         1 <0>         0.0000
     12 O6          6.0474    1.8414    0.0000 OH        1 <0>         0.0000
     13 O7          5.3329    0.6039    0.0000 O         1 <0>         0.0000
     14 H1          1.0461    1.4289    0.0000 HO        1 <0>         0.0000
     15 H2          1.7605    1.8414    0.0000 H1        1 <0>         0.0000
     16 H3          1.7605    1.8414    0.0000 H1        1 <0>         0.0000
     17 H4          2.4750    1.4289    0.0000 H1        1 <0>         0.0000
     18 H5          2.4750    0.6039    0.0000 HO        1 <0>         0.0000
     19 H6          3.1895    1.8414    0.0000 H1        1 <0>         0.0000
     20 H7          3.1895    2.6664    0.0000 HO        1 <0>         0.0000
     21 H8          3.9039    1.4289    0.0000 H1        1 <0>         0.0000
     22 H9          3.9039    0.6039    0.0000 HO        1 <0>         0.0000
     23 H10         4.6184    1.8414    0.0000 H1        1 <0>         0.0000
     24 H11         4.6184    2.6664    0.0000 HO        1 <0>         0.0000
     25 H12         6.0474    1.8414    0.0000 HO        1 <0>         0.0000
@<TRIPOS>BOND
     1    1    2 1
     2    2    3 1
     3    3    4 1
     4    3    5 1
     5    5    6 1
     6    5    7 1
     7    7    8 1
     8    7    9 1
     9    9   10 1
    10    9   11 1
    11   11   12 1
    12   11   13 2
    13    1   14 1
    14    2   15 1
    15    2   16 1
    16    3   17 1
    17    4   18 1
    18    5   19 1
    19    6   20 1
    20    7   21 1
    21    8   22 1
    22    9   23 1
    23   10   24 1
    24   12   25 1
@<TRIPOS>MOLECULE
OVA
   47    48     0     0     0
SMALL
NO_CHARGES

@<TRIPOS>ATOM
      1 C1         -1.6475    2.0271    0.0000 CT        1 <0>         0.0000
      2 C2         -0.8305    1.9123    0.0000 C         1 <0>         0.0000
      3 C3         -0.5215    1.1473    0.0000 CT        1 <0>         0.0000
      4 C4         -1.0294    0.4972    0.0000 CT        1 <0>         0.0000
      5 C5         -1.8464    0.6120    0.0000 CT        1 <0>         0.0000
      6 C6         -2.1554    1.3770    0.0000 CT        1 <0>         0.0000
      7 O1         -1.9896   -0.2004    0.0000 OH        1 <0>         0.0000
      8 C7         -2.6000    0.2765    0.0000 CT        1 <0>         0.0000
      9 C8         -0.3974   -0.0331    0.0000 CJ        1 <0>         0.0000
     10 C9          0.0151   -0.7476    0.0000 CJ        1 <0>         0.0000
     11 C10         0.7296   -1.1601    0.0000 CT        1 <0>         0.0000
     12 C11         1.4440   -0.7476    0.0000 CM        1 <0>         0.0000
     13 C12         2.1585   -1.1601    0.0000 CM        1 <0>         0.0000
     14 C13         0.2346    0.4972    0.0000 CT        1 <0>         0.0000
     15 O2         -0.8099   -0.7476    0.0000 OS        1 <0>         0.0000
     16 C14         2.8730   -0.7476    0.0000 CT        1 <0>         0.0000
     17 C15         2.1585   -1.9851    0.0000 CT        1 <0>         0.0000
     18 O3          0.2955    1.0325    0.0000 OS        1 <0>         0.0000
     19 C16         0.6046    0.2676    0.0000 CT        1 <0>         0.0000
     20 O4         -0.3226    2.5624    0.0000 O         1 <0>         0.0000
     21 O5         -1.1156   -0.3233    0.0000 OH        1 <0>         0.0000
     22 H1         -0.1620    1.6075    0.0000 H1        1 <0>         0.0000
     23 H2          0.4280   -0.3347    0.0000 H1        1 <0>         0.0000
     24 H3         -1.6475    2.0271    0.0000 HC        1 <0>         0.0000
     25 H4         -1.6475    2.0271    0.0000 HC        1 <0>         0.0000
     26 H5         -2.1554    1.3770    0.0000 HC        1 <0>         0.0000
     27 H6         -2.1554    1.3770    0.0000 HC        1 <0>         0.0000
     28 H7         -1.9896   -0.2004    0.0000 HO        1 <0>         0.0000
     29 H8         -2.6000    0.2765    0.0000 HC        1 <0>         0.0000
     30 H9         -2.6000    0.2765    0.0000 HC        1 <0>         0.0000
     31 H10        -2.6000    0.2765    0.0000 HC        1 <0>         0.0000
     32 H11         0.7296   -1.1601    0.0000 HC        1 <0>         0.0000
     33 H12         0.7296   -1.1601    0.0000 HC        1 <0>         0.0000
     34 H13         1.4440   -0.7476    0.0000 HA        1 <0>         0.0000
     35 H14         0.2346    0.4972    0.0000 HC        1 <0>         0.0000
     36 H15         0.2346    0.4972    0.0000 HC        1 <0>         0.0000
     37 H16         0.2346    0.4972    0.0000 HC        1 <0>         0.0000
     38 H17         2.8730   -0.7476    0.0000 HC        1 <0>         0.0000
     39 H18         2.8730   -0.7476    0.0000 HC        1 <0>         0.0000
     40 H19         2.8730   -0.7476    0.0000 HC        1 <0>         0.0000
     41 H20         2.1585   -1.9851    0.0000 HC        1 <0>         0.0000
     42 H21         2.1585   -1.9851    0.0000 HC        1 <0>         0.0000
     43 H22         2.1585   -1.9851    0.0000 HC        1 <0>         0.0000
     44 H23         0.6046    0.2676    0.0000 H1        1 <0>         0.0000
     45 H24         0.6046    0.2676    0.0000 H1        1 <0>         0.0000
     46 H25         0.6046    0.2676    0.0000 H1        1 <0>         0.0000
     47 H26        -1.1156   -0.3233    0.0000 HO        1 <0>         0.0000
@<TRIPOS>BOND
     1    1    2 1
     2    1    6 1
     3    2    3 1
     4    2   20 2
     5    3    4 1
     6    3   18 1
     7    3   22 1
     8    4    5 1
     9    4    9 1
    10    4   21 1
    11    5    6 1
    12    5    7 1
    13    5    8 1
    14    9   10 1
    15    9   14 1
    16    9   15 1
    17   10   11 1
    18   10   15 1
    19   10   23 1
    20   11   12 1
    21   12   13 2
    22   13   16 1
    23   13   17 1
    24   18   19 1
    25    1   24 1
    26    1   25 1
    27    6   26 1
    28    6   27 1
    29    7   28 1
    30    8   29 1
    31    8   30 1
    32    8   31 1
    33   11   32 1
    34   11   33 1
    35   12   34 1
    36   14   35 1
    37   14   36 1
    38   14   37 1
    39   16   38 1
    40   16   39 1
    41   16   40 1
    42   17   41 1
    43   17   42 1
    44   17   43 1
    45   19   44 1
    46   19   45 1
    47   19   46 1
    48   21   47 1
@<TRIPOS>MOLECULE
*****
   34    33     0     0     0
SMALL
NO_CHARGES

@<TRIPOS>ATOM
      1 C1          4.7586    3.5724    0.0000 CT        1 <0>         0.0000
      2 O1          5.4730    3.9849    0.0000 OS        1 <0>         0.0000
      3 C2          6.1875    3.5724    0.0000 CT        1 <0>         0.0000
      4 C3          6.9020    3.9849    0.0000 CT        1 <0>         0.0000
      5 O2          7.6164    3.5724    0.0000 OS        1 <0>         0.0000
      6 C4          8.3309    3.9849    0.0000 CT        1 <0>         0.0000
      7 C5          9.0454    3.5724    0.0000 CT        1 <0>         0.0000
      8 O3          9.7599    3.9849    0.0000 OS        1 <0>         0.0000
      9 C6         10.4743    3.5724    0.0000 CT        1 <0>         0.0000
     10 C7         11.1888    3.9849    0.0000 CT        1 <0>         0.0000
     11 O4         11.9033    3.5724    0.0000 OS        1 <0>         0.0000
     12 C8         12.6177    3.9849    0.0000 CT        1 <0>         0.0000
     13 C9         13.3322    3.5724    0.0000 CT        1 <0>         0.0000
     14 O5         14.0467    3.9849    0.0000 OH        1 <0>         0.0000
     15 H1          4.7586    3.5724    0.0000 H1        1 <0>         0.0000
     16 H2          4.7586    3.5724    0.0000 H1        1 <0>         0.0000
     17 H3          4.7586    3.5724    0.0000 H1        1 <0>         0.0000
     18 H4          6.1875    3.5724    0.0000 H1        1 <0>         0.0000
     19 H5          6.1875    3.5724    0.0000 H1        1 <0>         0.0000
     20 H6          6.9020    3.9849    0.0000 H1        1 <0>         0.0000
     21 H7          6.9020    3.9849    0.0000 H1        1 <0>         0.0000
     22 H8          8.3309    3.9849    0.0000 H1        1 <0>         0.0000
     23 H9          8.3309    3.9849    0.0000 H1        1 <0>         0.0000
     24 H10         9.0454    3.5724    0.0000 H1        1 <0>         0.0000
     25 H11         9.0454    3.5724    0.0000 H1        1 <0>         0.0000
     26 H12        10.4743    3.5724    0.0000 H1        1 <0>         0.0000
     27 H13        10.4743    3.5724    0.0000 H1        1 <0>         0.0000
     28 H14        11.1888    3.9849    0.0000 H1        1 <0>         0.0000
     29 H15        11.1888    3.9849    0.0000 H1        1 <0>         0.0000
     30 H16        12.6177    3.9849    0.0000 H1        1 <0>         0.0000
     31 H17        12.6177    3.9849    0.0000 H1        1 <0>         0.0000
     32 H18        13.3322    3.5724    0.0000 H1        1 <0>         0.0000
     33 H19        13.3322    3.5724    0.0000 H1        1 <0>         0.0000
     34 H20        14.0467    3.9849    0.0000 HO        1 <0>         0.0000
@<TRIPOS>BOND
     1    1    2 1
     2    2    3 1
     3    3    4 1
     4    4    5 1
     5    5    6 1
     6    6    7 1
     7    7    8 1
     8    8    9 1
     9    9   10 1
    10   10   11 1
    11   11   12 1
    12   12   13 1
    13   13   14 1
    14    1   15 1
    15    1   16 1
    16    1   17 1
    17    3   18 1
    18    3   19 1
    19    4   20 1
    20    4   21 1
    21    6   22 1
    22    6   23 1
    23    7   24 1
    24    7   25 1
    25    9   26 1
    26    9   27 1
    27   10   28 1
    28   10   29 1
    29   12   30 1
    30   12   31 1
    31   13   32 1
    32   13   33 1
    33   14   34 1
@<TRIPOS>MOLECULE
*****
    7     6     0     0     0
SMALL
NO_CHARGES

@<TRIPOS>ATOM
      1 O1          2.0625   -0.7145    0.0000 OH        1 <0>         0.0000
      2 C1          1.2375   -0.7145    0.0000 C         1 <0>         0.0000
      3 O2          0.8250   -1.4289    0.0000 O         1 <0>         0.0000
      4 C2          0.8250    0.0000    0.0000 C         1 <0>         0.0000
      5 O3          0.0000    0.0000    0.0000 O         1 <0>         0.0000
      6 H1          2.0625   -0.7145    0.0000 HO        1 <0>         0.0000
      7 H2          0.8250    0.0000    0.0000 H4        1 <0>         0.0000
@<TRIPOS>BOND
     1    1    2 1
     2    2    3 2
     3    2    4 1
     4    4    5 2
     5    1    6 1
     6    4    7 1
@<TRIPOS>MOLECULE
*****
   20    20     0     0     0
SMALL
NO_CHARGES

@<TRIPOS>ATOM
      1 C1          1.9889    0.2938    0.0000 CT        1 <0>         0.0000
      2 C2          1.2352    0.6294    0.0000 CT        1 <0>         0.0000
      3 O1          1.6477    1.3438    0.0000 OH        1 <0>         0.0000
      4 O2          0.9803   -0.1553    0.0000 OS        1 <0>         0.0000
      5 C3          0.1553   -0.1553    0.0000 CT        1 <0>         0.0000
      6 C4         -0.0997    0.6294    0.0000 CT        1 <0>         0.0000
      7 O3         -0.8843    0.8843    0.0000 OH        1 <0>         0.0000
      8 C5          0.5678    1.1143    0.0000 CT        1 <0>         0.0000
      9 O4          0.1628    1.8330    0.0000 OH        1 <0>         0.0000
     10 O5          0.9728    1.8330    0.0000 OH        1 <0>         0.0000
     11 H1          1.9889    0.2938    0.0000 HC        1 <0>         0.0000
     12 H2          1.9889    0.2938    0.0000 HC        1 <0>         0.0000
     13 H3          1.9889    0.2938    0.0000 HC        1 <0>         0.0000
     14 H4          1.6477    1.3438    0.0000 HO        1 <0>         0.0000
     15 H5          0.1553   -0.1553    0.0000 H1        1 <0>         0.0000
     16 H6          0.1553   -0.1553    0.0000 H1        1 <0>         0.0000
     17 H7         -0.0997    0.6294    0.0000 H1        1 <0>         0.0000
     18 H8         -0.8843    0.8843    0.0000 HO        1 <0>         0.0000
     19 H9          0.1628    1.8330    0.0000 HX        1 <0>         0.0000
     20 H10         0.9728    1.8330    0.0000 HX        1 <0>         0.0000
@<TRIPOS>BOND
     1    1    2 1
     2    2    3 1
     3    2    4 1
     4    4    5 1
     5    5    6 1
     6    6    7 1
     7    6    8 1
     8    2    8 1
     9    8    9 1
    10    8   10 1
    11    1   11 1
    12    1   12 1
    13    1   13 1
    14    3   14 1
    15    5   15 1
    16    5   16 1
    17    6   17 1
    18    7   18 1
    19    9   19 1
    20   10   20 1
@<TRIPOS>MOLECULE
*****
   22    22     0     0     0
SMALL
NO_CHARGES

@<TRIPOS>ATOM
      1 O1          2.1434    1.2375    0.0000 OH        1 <0>         0.0000
      2 C1          1.4289    0.8250    0.0000 CT        1 <0>         0.0000
      3 C2          1.4289    0.0000    0.0000 CT        1 <0>         0.0000
      4 C3          0.7145   -0.4125    0.0000 CT        1 <0>         0.0000
      5 C4          0.0000    0.0000    0.0000 CM        1 <0>         0.0000
      6 C5          0.0000    0.8250    0.0000 CM        1 <0>         0.0000
      7 O2         -0.7145    1.2375    0.0000 OH        1 <0>         0.0000
      8 C6          0.7145    1.2375    0.0000 CT        1 <0>         0.0000
      9 O3          0.7145    2.0625    0.0000 OH        1 <0>         0.0000
     10 C7          0.7145   -1.2375    0.0000 C         1 <0>         0.0000
     11 O4          1.4289   -1.6500    0.0000 OH        1 <0>         0.0000
     12 O5          0.0000   -1.6500    0.0000 O         1 <0>         0.0000
     13 H1          2.1434    1.2375    0.0000 HO        1 <0>         0.0000
     14 H2          1.4289    0.8250    0.0000 H1        1 <0>         0.0000
     15 H3          1.4289    0.0000    0.0000 HC        1 <0>         0.0000
     16 H4          1.4289    0.0000    0.0000 HC        1 <0>         0.0000
     17 H5          0.7145   -0.4125    0.0000 HC        1 <0>         0.0000
     18 H6          0.0000    0.0000    0.0000 HA        1 <0>         0.0000
     19 H7         -0.7145    1.2375    0.0000 HO        1 <0>         0.0000
     20 H8          0.7145    1.2375    0.0000 H1        1 <0>         0.0000
     21 H9          0.7145    2.0625    0.0000 HO        1 <0>         0.0000
     22 H10         1.4289   -1.6500    0.0000 HO        1 <0>         0.0000
@<TRIPOS>BOND
     1    1    2 1
     2    2    3 1
     3    3    4 1
     4    4    5 1
     5    5    6 2
     6    6    7 1
     7    6    8 1
     8    2    8 1
     9    8    9 1
    10    4   10 1
    11   10   11 1
    12   10   12 2
    13    1   13 1
    14    2   14 1
    15    3   15 1
    16    3   16 1
    17    4   17 1
    18    5   18 1
    19    7   19 1
    20    8   20 1
    21    9   21 1
    22   11   22 1
@<TRIPOS>MOLECULE
*****
   13    12     0     0     0
SMALL
NO_CHARGES

@<TRIPOS>ATOM
      1 C1          2.0625   -0.7145    0.0000 CT        1 <0>         0.0000
      2 C2          1.2375   -0.7145    0.0000 CT        1 <0>         0.0000
      3 O1          0.8250   -1.4289    0.0000 OH        1 <0>         0.0000
      4 C3          0.8250    0.0000    0.0000 CT        1 <0>         0.0000
      5 O2          0.0000    0.0000    0.0000 OH        1 <0>         0.0000
      6 H1          2.0625   -0.7145    0.0000 HC        1 <0>         0.0000
      7 H2          2.0625   -0.7145    0.0000 HC        1 <0>         0.0000
      8 H3          2.0625   -0.7145    0.0000 HC        1 <0>         0.0000
      9 H4          1.2375   -0.7145    0.0000 H1        1 <0>         0.0000
     10 H5          0.8250   -1.4289    0.0000 HO        1 <0>         0.0000
     11 H6          0.8250    0.0000    0.0000 H1        1 <0>         0.0000
     12 H7          0.8250    0.0000    0.0000 H1        1 <0>         0.0000
     13 H8          0.0000    0.0000    0.0000 HO        1 <0>         0.0000
@<TRIPOS>BOND
     1    1    2 1
     2    2    3 1
     3    2    4 1
     4    4    5 1
     5    1    6 1
     6    1    7 1
     7    1    8 1
     8    2    9 1
     9    3   10 1
    10    4   11 1
    11    4   12 1
    12    5   13 1
@<TRIPOS>MOLECULE
*****
   15    14     0     0     0
SMALL
NO_CHARGES

@<TRIPOS>ATOM
      1 O1          2.4750    1.4289    0.0000 O2        1 <0>         0.0000
      2 C1          2.0625    0.7145    0.0000 C         1 <0>         0.0000
      3 O2          2.4750    0.0000    0.0000 O2        1 <0>         0.0000
      4 C2          1.2375    0.7145    0.0000 CT        1 <0>         0.0000
      5 C3          0.8250    0.0000    0.0000 CM        1 <0>         0.0000
      6 C4          0.0000    0.0000    0.0000 CM        1 <0>         0.0000
      7 C5         -0.4125   -0.7145    0.0000 C         1 <0>         0.0000
      8 O3          0.0000   -1.4289    0.0000 O2        1 <0>         0.0000
      9 O4         -1.2375   -0.7145    0.0000 O2        1 <0>         0.0000
     10 C6          1.2375   -0.7145    0.0000 C         1 <0>         0.0000
     11 O5          0.8250   -1.4289    0.0000 O2        1 <0>         0.0000
     12 O6          2.0625   -0.7145    0.0000 O2        1 <0>         0.0000
     13 H1          1.2375    0.7145    0.0000 HC        1 <0>         0.0000
     14 H2          1.2375    0.7145    0.0000 HC        1 <0>         0.0000
     15 H3          0.0000    0.0000    0.0000 HA        1 <0>         0.0000
@<TRIPOS>BOND
     1    1    2 1
     2    2    3 2
     3    2    4 1
     4    4    5 1
     5    5    6 2
     6    6    7 1
     7    7    8 1
     8    7    9 2
     9    5   10 1
    10   10   11 1
    11   10   12 2
    12    4   13 1
    13    4   14 1
    14    6   15 1
@<TRIPOS>MOLECULE
PRB
   59    62     0     0     0
SMALL
NO_CHARGES

@<TRIPOS>ATOM
      1 C1          1.5670    0.5942    0.0000 CM        1 <0>         0.0000
      2 C2          2.3423    0.3124    0.0000 CM        1 <0>         0.0000
      3 C3          2.3139   -0.5121    0.0000 C         1 <0>         0.0000
      4 O1          2.9643   -1.0197    0.0000 O         1 <0>         0.0000
      5 C4          1.5210   -0.7399    0.0000 CT        1 <0>         0.0000
      6 O2          2.0974   -1.3302    0.0000 OH        1 <0>         0.0000
      7 C5          1.2743   -1.5272    0.0000 CT        1 <0>         0.0000
      8 C6          0.5050   -1.8251    0.0000 CM        1 <0>         0.0000
      9 C7         -0.2076   -1.4094    0.0000 CM        1 <0>         0.0000
     10 C8         -0.3269   -0.5931    0.0000 CT        1 <0>         0.0000
     11 C9          0.2369    0.0092    0.0000 CT        1 <0>         0.0000
     12 O3          0.7542    0.6519    0.0000 OH        1 <0>         0.0000
     13 C10         1.0594   -0.0562    0.0000 CT        1 <0>         0.0000
     14 C11        -0.0027    0.7986    0.0000 CT        1 <0>         0.0000
     15 C12        -0.8062    0.9858    0.0000 CT        1 <0>         0.0000
     16 O4         -1.0458    1.7752    0.0000 OH        1 <0>         0.0000
     17 C13        -1.3700    0.3836    0.0000 CJ        1 <0>         0.0000
     18 C14        -1.1304   -0.4059    0.0000 CJ        1 <0>         0.0000
     19 C15        -1.9339   -0.2187    0.0000 CJ        1 <0>         0.0000
     20 C16        -2.7180    0.0378    0.0000 CT        1 <0>         0.0000
     21 C17        -2.4431   -0.8678    0.0000 CT        1 <0>         0.0000
     22 C18         0.5612    1.4008    0.0000 CT        1 <0>         0.0000
     23 C19         3.0261    0.7741    0.0000 CT        1 <0>         0.0000
     24 C20         0.4396   -2.6475    0.0000 CT        1 <0>         0.0000
     25 O5         -0.3053   -3.0021    0.0000 OH        1 <0>         0.0000
     26 O6         -1.9723    0.9474    0.0000 OS        1 <0>         0.0000
     27 C21        -1.7851    1.7509    0.0000 C         1 <0>         0.0000
     28 O7         -2.3873    2.3148    0.0000 O         1 <0>         0.0000
     29 C22        -1.1083    2.2227    0.0000 CT        1 <0>         0.0000
     30 H1         -0.7567   -0.9883    0.0000 HC        1 <0>         0.0000
     31 H2          0.8242    0.4783    0.0000 HC        1 <0>         0.0000
     32 H3          0.5770    0.8686    0.0000 HC        1 <0>         0.0000
     33 H4         -0.4071    1.4121    0.0000 H1        1 <0>         0.0000
     34 H5         -1.2629   -0.9746    0.0000 HC        1 <0>         0.0000
     35 H6          1.5670    0.5942    0.0000 HA        1 <0>         0.0000
     36 H7          2.0974   -1.3302    0.0000 HO        1 <0>         0.0000
     37 H8          1.2743   -1.5272    0.0000 HC        1 <0>         0.0000
     38 H9          1.2743   -1.5272    0.0000 HC        1 <0>         0.0000
     39 H10        -0.2076   -1.4094    0.0000 HA        1 <0>         0.0000
     40 H11         0.7542    0.6519    0.0000 HO        1 <0>         0.0000
     41 H12        -1.0458    1.7752    0.0000 HO        1 <0>         0.0000
     42 H13        -2.7180    0.0378    0.0000 HC        1 <0>         0.0000
     43 H14        -2.7180    0.0378    0.0000 HC        1 <0>         0.0000
     44 H15        -2.7180    0.0378    0.0000 HC        1 <0>         0.0000
     45 H16        -2.4431   -0.8678    0.0000 HC        1 <0>         0.0000
     46 H17        -2.4431   -0.8678    0.0000 HC        1 <0>         0.0000
     47 H18        -2.4431   -0.8678    0.0000 HC        1 <0>         0.0000
     48 H19         0.5612    1.4008    0.0000 HC        1 <0>         0.0000
     49 H20         0.5612    1.4008    0.0000 HC        1 <0>         0.0000
     50 H21         0.5612    1.4008    0.0000 HC        1 <0>         0.0000
     51 H22         3.0261    0.7741    0.0000 HC        1 <0>         0.0000
     52 H23         3.0261    0.7741    0.0000 HC        1 <0>         0.0000
     53 H24         3.0261    0.7741    0.0000 HC        1 <0>         0.0000
     54 H25         0.4396   -2.6475    0.0000 H1        1 <0>         0.0000
     55 H26         0.4396   -2.6475    0.0000 H1        1 <0>         0.0000
     56 H27        -0.3053   -3.0021    0.0000 HO        1 <0>         0.0000
     57 H28        -1.1083    2.2227    0.0000 HC        1 <0>         0.0000
     58 H29        -1.1083    2.2227    0.0000 HC        1 <0>         0.0000
     59 H30        -1.1083    2.2227    0.0000 HC        1 <0>         0.0000
@<TRIPOS>BOND
     1    1    2 2
     2    1   13 1
     3    2    3 1
     4    2   23 1
     5    3    4 2
     6    3    5 1
     7    5    6 1
     8    5    7 1
     9    5   13 1
    10    7    8 1
    11    8    9 2
    12    8   24 1
    13    9   10 1
    14   10   11 1
    15   10   18 1
    16   10   30 1
    17   11   12 1
    18   11   13 1
    19   11   14 1
    20   13   31 1
    21   14   15 1
    22   14   22 1
    23   14   32 1
    24   15   16 1
    25   15   17 1
    26   15   33 1
    27   17   18 1
    28   17   19 1
    29   17   26 1
    30   18   19 1
    31   18   34 1
    32   19   20 1
    33   19   21 1
    34   24   25 1
    35   26   27 1
    36   27   28 2
    37   27   29 1
    38    1   35 1
    39    6   36 1
    40    7   37 1
    41    7   38 1
    42    9   39 1
    43   12   40 1
    44   16   41 1
    45   20   42 1
    46   20   43 1
    47   20   44 1
    48   21   45 1
    49   21   46 1
    50   21   47 1
    51   22   48 1
    52   22   49 1
    53   22   50 1
    54   23   51 1
    55   23   52 1
    56   23   53 1
    57   24   54 1
    58   24   55 1
    59   25   56 1
    60   29   57 1
    61   29   58 1
    62   29   59 1
@<TRIPOS>MOLECULE
*****
   21    20     0     0     0
SMALL
NO_CHARGES

@<TRIPOS>ATOM
      1 C1          4.3164    0.7145    0.0000 CT        1 <0>         0.0000
      2 C2          3.9039    1.4289    0.0000 CT        1 <0>         0.0000
      3 O1          3.4914    2.1434    0.0000 OH        1 <0>         0.0000
      4 C3          3.1895    1.0164    0.0000 CT        1 <0>         0.0000
      5 C4          2.4750    1.4289    0.0000 C         1 <0>         0.0000
      6 O2          1.7605    1.0164    0.0000 OH        1 <0>         0.0000
      7 O3          2.4750    2.2539    0.0000 O         1 <0>         0.0000
      8 C5          4.6184    1.8414    0.0000 CT        1 <0>         0.0000
      9 C6          5.3329    1.4289    0.0000 C         1 <0>         0.0000
     10 O4          6.0474    1.8414    0.0000 OH        1 <0>         0.0000
     11 O5          5.3329    0.6039    0.0000 O         1 <0>         0.0000
     12 H1          4.3164    0.7145    0.0000 HC        1 <0>         0.0000
     13 H2          4.3164    0.7145    0.0000 HC        1 <0>         0.0000
     14 H3          4.3164    0.7145    0.0000 HC        1 <0>         0.0000
     15 H4          3.4914    2.1434    0.0000 HO        1 <0>         0.0000
     16 H5          3.1895    1.0164    0.0000 HC        1 <0>         0.0000
     17 H6          3.1895    1.0164    0.0000 HC        1 <0>         0.0000
     18 H7          1.7605    1.0164    0.0000 HO        1 <0>         0.0000
     19 H8          4.6184    1.8414    0.0000 HC        1 <0>         0.0000
     20 H9          4.6184    1.8414    0.0000 HC        1 <0>         0.0000
     21 H10         6.0474    1.8414    0.0000 HO        1 <0>         0.0000
@<TRIPOS>BOND
     1    1    2 1
     2    2    3 1
     3    2    4 1
     4    4    5 1
     5    5    6 1
     6    5    7 2
     7    2    8 1
     8    8    9 1
     9    9   10 1
    10    9   11 2
    11    1   12 1
    12    1   13 1
    13    1   14 1
    14    3   15 1
    15    4   16 1
    16    4   17 1
    17    6   18 1
    18    8   19 1
    19    8   20 1
    20   10   21 1
@<TRIPOS>MOLECULE
*****
   11    10     0     0     0
SMALL
NO_CHARGES

@<TRIPOS>ATOM
      1 C1          1.2375    0.7145    0.0000 CT        1 <0>         0.0000
      2 C2          0.8250    0.0000    0.0000 CM        1 <0>         0.0000
      3 C3          0.0000    0.0000    0.0000 CM        1 <0>         0.0000
      4 C4         -0.4125   -0.7145    0.0000 C         1 <0>         0.0000
      5 O1          0.0000   -1.4289    0.0000 O         1 <0>         0.0000
      6 H1          1.2375    0.7145    0.0000 HC        1 <0>         0.0000
      7 H2          1.2375    0.7145    0.0000 HC        1 <0>         0.0000
      8 H3          1.2375    0.7145    0.0000 HC        1 <0>         0.0000
      9 H4          0.8250    0.0000    0.0000 HA        1 <0>         0.0000
     10 H5          0.0000    0.0000    0.0000 HA        1 <0>         0.0000
     11 H6         -0.4125   -0.7145    0.0000 H4        1 <0>         0.0000
@<TRIPOS>BOND
     1    1    2 1
     2    2    3 2
     3    3    4 1
     4    4    5 2
     5    1    6 1
     6    1    7 1
     7    1    8 1
     8    2    9 1
     9    3   10 1
    10    4   11 1
@<TRIPOS>MOLECULE
*****
   23    23     0     0     0
SMALL
NO_CHARGES

@<TRIPOS>ATOM
      1 O1          2.1434    2.0625    0.0000 OH        1 <0>         0.0000
      2 C1          2.1434    1.2375    0.0000 CT        1 <0>         0.0000
      3 C2          1.4289    0.8250    0.0000 CT        1 <0>         0.0000
      4 O2          1.4289    0.0000    0.0000 OS        1 <0>         0.0000
      5 C3          0.7145   -0.4125    0.0000 CT        1 <0>         0.0000
      6 O3          0.7145   -1.2375    0.0000 OH        1 <0>         0.0000
      7 C4          0.0000    0.0000    0.0000 CT        1 <0>         0.0000
      8 C5          0.0000    0.8250    0.0000 CT        1 <0>         0.0000
      9 O4         -0.7145    1.2375    0.0000 OH        1 <0>         0.0000
     10 C6          0.7145    1.2375    0.0000 CT        1 <0>         0.0000
     11 O5          0.7145    2.0625    0.0000 OH        1 <0>         0.0000
     12 H1          2.1434    2.0625    0.0000 HO        1 <0>         0.0000
     13 H2          2.1434    1.2375    0.0000 H1        1 <0>         0.0000
     14 H3          2.1434    1.2375    0.0000 H1        1 <0>         0.0000
     15 H4          1.4289    0.8250    0.0000 H1        1 <0>         0.0000
     16 H5          0.7145   -0.4125    0.0000 H2        1 <0>         0.0000
     17 H6          0.7145   -1.2375    0.0000 HO        1 <0>         0.0000
     18 H7          0.0000    0.0000    0.0000 HC        1 <0>         0.0000
     19 H8          0.0000    0.0000    0.0000 HC        1 <0>         0.0000
     20 H9          0.0000    0.8250    0.0000 H1        1 <0>         0.0000
     21 H10        -0.7145    1.2375    0.0000 HO        1 <0>         0.0000
     22 H11         0.7145    1.2375    0.0000 H1        1 <0>         0.0000
     23 H12         0.7145    2.0625    0.0000 HO        1 <0>         0.0000
@<TRIPOS>BOND
     1    1    2 1
     2    2    3 1
     3    3    4 1
     4    4    5 1
     5    5    6 1
     6    5    7 1
     7    7    8 1
     8    8    9 1
     9    8   10 1
    10    3   10 1
    11   10   11 1
    12    1   12 1
    13    2   13 1
    14    2   14 1
    15    3   15 1
    16    5   16 1
    17    6   17 1
    18    7   18 1
    19    7   19 1
    20    8   20 1
    21    9   21 1
    22   10   22 1
    23   11   23 1
@<TRIPOS>MOLECULE
*****
   31    32     0     0     0
SMALL
NO_CHARGES

@<TRIPOS>ATOM
      1 C1          0.4323   -2.0127    0.0000 CT        1 <0>         0.0000
      2 C2          0.7145   -1.2375    0.0000 CT        1 <0>         0.0000
      3 O1          0.7145   -0.4125    0.0000 OS        1 <0>         0.0000
      4 C3          1.4289    0.0000    0.0000 CT        1 <0>         0.0000
      5 C4          2.1434   -0.4125    0.0000 CT        1 <0>         0.0000
      6 O2          2.8579    0.0000    0.0000 OS        1 <0>         0.0000
      7 C5          3.5724   -0.4125    0.0000 CT        1 <0>         0.0000
      8 O3          4.2868    0.0000    0.0000 OH        1 <0>         0.0000
      9 C6          3.5724   -1.2375    0.0000 CT        1 <0>         0.0000
     10 O4          4.2868   -1.6500    0.0000 OH        1 <0>         0.0000
     11 C7          2.8579   -1.6500    0.0000 CT        1 <0>         0.0000
     12 O5          2.8579   -2.4750    0.0000 OH        1 <0>         0.0000
     13 C8          2.1434   -1.2375    0.0000 CT        1 <0>         0.0000
     14 O6          1.4289   -1.6500    0.0000 OS        1 <0>         0.0000
     15 C9         -0.0980   -1.0942    0.0000 C         1 <0>         0.0000
     16 O7         -0.6283   -1.7262    0.0000 OH        1 <0>         0.0000
     17 O8         -0.3802   -0.3190    0.0000 O         1 <0>         0.0000
     18 H1          0.4323   -2.0127    0.0000 HC        1 <0>         0.0000
     19 H2          0.4323   -2.0127    0.0000 HC        1 <0>         0.0000
     20 H3          0.4323   -2.0127    0.0000 HC        1 <0>         0.0000
     21 H4          1.4289    0.0000    0.0000 H1        1 <0>         0.0000
     22 H5          1.4289    0.0000    0.0000 H1        1 <0>         0.0000
     23 H6          2.1434   -0.4125    0.0000 H1        1 <0>         0.0000
     24 H7          3.5724   -0.4125    0.0000 H2        1 <0>         0.0000
     25 H8          4.2868    0.0000    0.0000 HO        1 <0>         0.0000
     26 H9          3.5724   -1.2375    0.0000 H1        1 <0>         0.0000
     27 H10         4.2868   -1.6500    0.0000 HO        1 <0>         0.0000
     28 H11         2.8579   -1.6500    0.0000 H1        1 <0>         0.0000
     29 H12         2.8579   -2.4750    0.0000 HO        1 <0>         0.0000
     30 H13         2.1434   -1.2375    0.0000 H1        1 <0>         0.0000
     31 H14        -0.6283   -1.7262    0.0000 HO        1 <0>         0.0000
@<TRIPOS>BOND
     1    1    2 1
     2    2    3 1
     3    3    4 1
     4    4    5 1
     5    5    6 1
     6    6    7 1
     7    7    8 1
     8    7    9 1
     9    9   10 1
    10    9   11 1
    11   11   12 1
    12   11   13 1
    13    5   13 1
    14   13   14 1
    15    2   14 1
    16    2   15 1
    17   15   16 1
    18   15   17 2
    19    1   18 1
    20    1   19 1
    21    1   20 1
    22    4   21 1
    23    4   22 1
    24    5   23 1
    25    7   24 1
    26    8   25 1
    27    9   26 1
    28   10   27 1
    29   11   28 1
    30   12   29 1
    31   13   30 1
    32   16   31 1
@<TRIPOS>MOLECULE
DTC
   37    40     0     0     0
SMALL
NO_CHARGES

@<TRIPOS>ATOM
      1 O1          0.2418   -1.2907    0.0000 OS        1 <0>         0.0000
      2 C1          0.9563   -1.7032    0.0000 CA        1 <0>         0.0000
      3 C2          1.6708   -1.2907    0.0000 CA        1 <0>         0.0000
      4 C3          1.6708   -0.4657    0.0000 C         1 <0>         0.0000
      5 O2          2.3852   -0.0532    0.0000 O         1 <0>         0.0000
      6 C4          0.9563   -0.0532    0.0000 CT        1 <0>         0.0000
      7 C5          0.9563    0.7718    0.0000 CT        1 <0>         0.0000
      8 C6          0.2418   -0.4657    0.0000 C         1 <0>         0.0000
      9 O3         -0.4727   -0.0532    0.0000 O         1 <0>         0.0000
     10 C7          2.3852   -1.7032    0.0000 CA        1 <0>         0.0000
     11 C8          2.3852   -2.5282    0.0000 CA        1 <0>         0.0000
     12 C9          1.6708   -2.9407    0.0000 CA        1 <0>         0.0000
     13 C10         0.9563   -2.5282    0.0000 CA        1 <0>         0.0000
     14 C11        -1.9016    0.7718    0.0000 CA        1 <0>         0.0000
     15 C12        -1.1871    1.1843    0.0000 CA        1 <0>         0.0000
     16 C13        -1.1871    2.0093    0.0000 CA        1 <0>         0.0000
     17 C14        -1.9016    2.4218    0.0000 CA        1 <0>         0.0000
     18 C15        -2.6161    2.0093    0.0000 CA        1 <0>         0.0000
     19 C16        -2.6161    1.1843    0.0000 CA        1 <0>         0.0000
     20 O4         -0.4727    2.4218    0.0000 OS        1 <0>         0.0000
     21 C17         0.2418    2.0093    0.0000 C         1 <0>         0.0000
     22 O5          0.9563    2.4218    0.0000 O         1 <0>         0.0000
     23 C18         0.2418    1.1843    0.0000 CT        1 <0>         0.0000
     24 C19        -0.4727    0.7718    0.0000 C         1 <0>         0.0000
     25 O6         -0.9576    0.1043    0.0000 O         1 <0>         0.0000
     26 H1          1.4620    0.2387    0.0000 HC        1 <0>         0.0000
     27 H2          0.7475    1.4762    0.0000 HC        1 <0>         0.0000
     28 H3          0.9563    0.7718    0.0000 HC        1 <0>         0.0000
     29 H4          0.9563    0.7718    0.0000 HC        1 <0>         0.0000
     30 H5          2.3852   -1.7032    0.0000 HA        1 <0>         0.0000
     31 H6          2.3852   -2.5282    0.0000 HA        1 <0>         0.0000
     32 H7          1.6708   -2.9407    0.0000 HA        1 <0>         0.0000
     33 H8          0.9563   -2.5282    0.0000 HA        1 <0>         0.0000
     34 H9         -1.9016    0.7718    0.0000 HA        1 <0>         0.0000
     35 H10        -1.9016    2.4218    0.0000 HA        1 <0>         0.0000
     36 H11        -2.6161    2.0093    0.0000 HA        1 <0>         0.0000
     37 H12        -2.6161    1.1843    0.0000 HA        1 <0>         0.0000
@<TRIPOS>BOND
     1    1    2 1
     2    1    8 1
     3    2    3 ar
     4    2   13 ar
     5    3    4 1
     6    3   10 ar
     7    4    5 2
     8    4    6 1
     9    6    7 1
    10    6    8 1
    11    6   26 1
    12    7   23 1
    13    8    9 2
    14   10   11 ar
    15   11   12 ar
    16   12   13 ar
    17   14   15 ar
    18   14   19 ar
    19   15   16 ar
    20   15   24 1
    21   16   17 ar
    22   16   20 1
    23   17   18 ar
    24   18   19 ar
    25   20   21 1
    26   21   22 2
    27   21   23 1
    28   23   24 1
    29   23   27 1
    30   24   25 2
    31    7   28 1
    32    7   29 1
    33   10   30 1
    34   11   31 1
    35   12   32 1
    36   13   33 1
    37   14   34 1
    38   17   35 1
    39   18   36 1
    40   19   37 1
@<TRIPOS>MOLECULE
Structure #1
   12    11     0     0     0
SMALL
NO_CHARGES

@<TRIPOS>ATOM
      1 C1          0.8250    1.4289    0.0000 CT        1 <0>         0.0000
      2 C2          1.2375    0.7145    0.0000 CT        1 <0>         0.0000
      3 C3          0.8250    0.0000    0.0000 C         1 <0>         0.0000
      4 O1          2.0625    0.7145    0.0000 OH        1 <0>         0.0000
      5 O2          1.2375   -0.7145    0.0000 O         1 <0>         0.0000
      6 O3          0.0000    0.0000    0.0000 OH        1 <0>         0.0000
      7 H1          0.8250    1.4289    0.0000 HC        1 <0>         0.0000
      8 H2          0.8250    1.4289    0.0000 HC        1 <0>         0.0000
      9 H3          0.8250    1.4289    0.0000 HC        1 <0>         0.0000
     10 H4          1.2375    0.7145    0.0000 H1        1 <0>         0.0000
     11 H5          2.0625    0.7145    0.0000 HO        1 <0>         0.0000
     12 H6          0.0000    0.0000    0.0000 HO        1 <0>         0.0000
@<TRIPOS>BOND
     1    1    2 1
     2    2    3 1
     3    2    4 1
     4    3    5 2
     5    3    6 1
     6    1    7 1
     7    1    8 1
     8    1    9 1
     9    2   10 1
    10    4   11 1
    11    6   12 1
@<TRIPOS>MOLECULE
*****
   30    32     0     0     0
SMALL
NO_CHARGES

@<TRIPOS>ATOM
      1 O1         -2.1434   -2.8875    0.0000 OH        1 <0>         0.0000
      2 C1         -1.4289   -2.4750    0.0000 CA        1 <0>         0.0000
      3 C2         -1.4289   -1.6500    0.0000 CA        1 <0>         0.0000
      4 C3         -0.7145   -1.2375    0.0000 CA        1 <0>         0.0000
      5 C4          0.0000   -1.6500    0.0000 CA        1 <0>         0.0000
      6 C5          0.0000   -2.4750    0.0000 CA        1 <0>         0.0000
      7 C6         -0.7145   -2.8875    0.0000 CA        1 <0>         0.0000
      8 C7          0.7145   -1.2375    0.0000 CT        1 <0>         0.0000
      9 C8          0.7145   -0.4125    0.0000 CT        1 <0>         0.0000
     10 C9          1.4289    0.0000    0.0000 C         1 <0>         0.0000
     11 O2          1.4289    0.8250    0.0000 O         1 <0>         0.0000
     12 C10         2.1434   -0.4125    0.0000 CA        1 <0>         0.0000
     13 C11         2.8579    0.0000    0.0000 CA        1 <0>         0.0000
     14 C12         3.5724   -0.4125    0.0000 CA        1 <0>         0.0000
     15 C13         3.5724   -1.2375    0.0000 CA        1 <0>         0.0000
     16 C14         2.8579   -1.6500    0.0000 CA        1 <0>         0.0000
     17 C15         2.1434   -1.2375    0.0000 CA        1 <0>         0.0000
     18 O3          1.4289   -1.6500    0.0000 OS        1 <0>         0.0000
     19 H1         -2.1434   -2.8875    0.0000 HO        1 <0>         0.0000
     20 H2         -1.4289   -1.6500    0.0000 HA        1 <0>         0.0000
     21 H3         -0.7145   -1.2375    0.0000 HA        1 <0>         0.0000
     22 H4          0.0000   -2.4750    0.0000 HA        1 <0>         0.0000
     23 H5         -0.7145   -2.8875    0.0000 HA        1 <0>         0.0000
     24 H6          0.7145   -1.2375    0.0000 H1        1 <0>         0.0000
     25 H7          0.7145   -0.4125    0.0000 HC        1 <0>         0.0000
     26 H8          0.7145   -0.4125    0.0000 HC        1 <0>         0.0000
     27 H9          2.8579    0.0000    0.0000 HA        1 <0>         0.0000
     28 H10         3.5724   -0.4125    0.0000 HA        1 <0>         0.0000
     29 H11         3.5724   -1.2375    0.0000 HA        1 <0>         0.0000
     30 H12         2.8579   -1.6500    0.0000 HA        1 <0>         0.0000
@<TRIPOS>BOND
     1    1    2 1
     2    2    3 ar
     3    3    4 ar
     4    4    5 ar
     5    5    6 ar
     6    6    7 ar
     7    2    7 ar
     8    5    8 1
     9    8    9 1
    10    9   10 1
    11   10   11 2
    12   10   12 1
    13   12   13 ar
    14   13   14 ar
    15   14   15 ar
    16   15   16 ar
    17   16   17 ar
    18   12   17 ar
    19   17   18 1
    20    8   18 1
    21    1   19 1
    22    3   20 1
    23    4   21 1
    24    6   22 1
    25    7   23 1
    26    8   24 1
    27    9   25 1
    28    9   26 1
    29   13   27 1
    30   14   28 1
    31   15   29 1
    32   16   30 1
@<TRIPOS>MOLECULE
*****
   27    27     0     0     0
SMALL
NO_CHARGES

@<TRIPOS>ATOM
      1 C1          2.1434    2.0625    0.0000 CT        1 <0>         0.0000
      2 O1          2.1434    1.2375    0.0000 OS        1 <0>         0.0000
      3 C2          1.4289    0.8250    0.0000 CA        1 <0>         0.0000
      4 C3          1.4289    0.0000    0.0000 CA        1 <0>         0.0000
      5 C4          0.7145   -0.4125    0.0000 CA        1 <0>         0.0000
      6 C5          0.0000    0.0000    0.0000 CA        1 <0>         0.0000
      7 C6          0.0000    0.8250    0.0000 CA        1 <0>         0.0000
      8 O2         -0.7145    1.2375    0.0000 OH        1 <0>         0.0000
      9 C7          0.7145    1.2375    0.0000 CA        1 <0>         0.0000
     10 O3          0.7145    2.0625    0.0000 OH        1 <0>         0.0000
     11 C8          0.7145   -1.2375    0.0000 CM        1 <0>         0.0000
     12 C9          0.0000   -1.6500    0.0000 CM        1 <0>         0.0000
     13 C10         0.0000   -2.4750    0.0000 CT        1 <0>         0.0000
     14 O4          0.7145   -2.8875    0.0000 OH        1 <0>         0.0000
     15 O5         -0.7145   -2.8875    0.0000 OH        1 <0>         0.0000
     16 H1          2.1434    2.0625    0.0000 H1        1 <0>         0.0000
     17 H2          2.1434    2.0625    0.0000 H1        1 <0>         0.0000
     18 H3          2.1434    2.0625    0.0000 H1        1 <0>         0.0000
     19 H4          1.4289    0.0000    0.0000 HA        1 <0>         0.0000
     20 H5          0.0000    0.0000    0.0000 HA        1 <0>         0.0000
     21 H6         -0.7145    1.2375    0.0000 HO        1 <0>         0.0000
     22 H7          0.7145    2.0625    0.0000 HO        1 <0>         0.0000
     23 H8          0.7145   -1.2375    0.0000 HA        1 <0>         0.0000
     24 H9          0.0000   -1.6500    0.0000 HA        1 <0>         0.0000
     25 H10         0.0000   -2.4750    0.0000 H2        1 <0>         0.0000
     26 H11         0.7145   -2.8875    0.0000 HX        1 <0>         0.0000
     27 H12        -0.7145   -2.8875    0.0000 HX        1 <0>         0.0000
@<TRIPOS>BOND
     1    1    2 1
     2    2    3 1
     3    3    4 ar
     4    4    5 ar
     5    5    6 ar
     6    6    7 ar
     7    7    8 1
     8    7    9 ar
     9    3    9 ar
    10    9   10 1
    11    5   11 1
    12   11   12 2
    13   12   13 1
    14   13   14 1
    15   13   15 1
    16    1   16 1
    17    1   17 1
    18    1   18 1
    19    4   19 1
    20    6   20 1
    21    8   21 1
    22   10   22 1
    23   11   23 1
    24   12   24 1
    25   13   25 1
    26   14   26 1
    27   15   27 1
@<TRIPOS>MOLECULE
*****
   45    46     0     0     0
SMALL
NO_CHARGES

@<TRIPOS>ATOM
      1 O1         -3.1038   -2.0012    0.0000 OH        1 <0>         0.0000
      2 C1         -2.3893   -1.5887    0.0000 CT        1 <0>         0.0000
      3 C2         -1.6748   -2.0012    0.0000 CT        1 <0>         0.0000
      4 O2         -0.9603   -1.5887    0.0000 OS        1 <0>         0.0000
      5 C3         -0.2459   -2.0012    0.0000 CT        1 <0>         0.0000
      6 C4         -0.2459   -2.8262    0.0000 CT        1 <0>         0.0000
      7 O3          0.4686   -3.2387    0.0000 OH        1 <0>         0.0000
      8 C5         -0.9603   -3.2387    0.0000 CT        1 <0>         0.0000
      9 O4         -0.9603   -4.0637    0.0000 OH        1 <0>         0.0000
     10 C6         -1.6748   -2.8262    0.0000 CT        1 <0>         0.0000
     11 O5         -2.3893   -3.2387    0.0000 OH        1 <0>         0.0000
     12 C7          0.4686   -0.7637    0.0000 CT        1 <0>         0.0000
     13 C8         -0.2459   -0.3512    0.0000 CT        1 <0>         0.0000
     14 C9         -0.9603   -0.7637    0.0000 CT        1 <0>         0.0000
     15 O6         -1.6748   -0.3512    0.0000 OH        1 <0>         0.0000
     16 O7         -0.2459    0.4738    0.0000 OS        1 <0>         0.0000
     17 C10         0.4686    0.8863    0.0000 CT        1 <0>         0.0000
     18 O8          0.4686    1.7113    0.0000 OH        1 <0>         0.0000
     19 C11         1.1831    0.4738    0.0000 CT        1 <0>         0.0000
     20 O9          1.8975    0.8863    0.0000 OH        1 <0>         0.0000
     21 C12         1.1831   -0.3512    0.0000 CT        1 <0>         0.0000
     22 O10         1.8975   -0.7637    0.0000 OH        1 <0>         0.0000
     23 O11         0.4686   -1.5887    0.0000 OS        1 <0>         0.0000
     24 H1         -3.1038   -2.0012    0.0000 HO        1 <0>         0.0000
     25 H2         -2.3893   -1.5887    0.0000 H1        1 <0>         0.0000
     26 H3         -2.3893   -1.5887    0.0000 H1        1 <0>         0.0000
     27 H4         -1.6748   -2.0012    0.0000 H1        1 <0>         0.0000
     28 H5         -0.2459   -2.0012    0.0000 H2        1 <0>         0.0000
     29 H6         -0.2459   -2.8262    0.0000 H1        1 <0>         0.0000
     30 H7          0.4686   -3.2387    0.0000 HO        1 <0>         0.0000
     31 H8         -0.9603   -3.2387    0.0000 H1        1 <0>         0.0000
     32 H9         -0.9603   -4.0637    0.0000 HO        1 <0>         0.0000
     33 H10        -1.6748   -2.8262    0.0000 H1        1 <0>         0.0000
     34 H11        -2.3893   -3.2387    0.0000 HO        1 <0>         0.0000
     35 H12         0.4686   -0.7637    0.0000 H1        1 <0>         0.0000
     36 H13        -0.2459   -0.3512    0.0000 H1        1 <0>         0.0000
     37 H14        -0.9603   -0.7637    0.0000 H1        1 <0>         0.0000
     38 H15        -0.9603   -0.7637    0.0000 H1        1 <0>         0.0000
     39 H16        -1.6748   -0.3512    0.0000 HO        1 <0>         0.0000
     40 H17         0.4686    0.8863    0.0000 H2        1 <0>         0.0000
     41 H18         0.4686    1.7113    0.0000 HO        1 <0>         0.0000
     42 H19         1.1831    0.4738    0.0000 H1        1 <0>         0.0000
     43 H20         1.8975    0.8863    0.0000 HO        1 <0>         0.0000
     44 H21         1.1831   -0.3512    0.0000 H1        1 <0>         0.0000
     45 H22         1.8975   -0.7637    0.0000 HO        1 <0>         0.0000
@<TRIPOS>BOND
     1    1    2 1
     2    2    3 1
     3    3    4 1
     4    4    5 1
     5    5   23 1
     6    5    6 1
     7    6    7 1
     8    6    8 1
     9    8    9 1
    10    8   10 1
    11    3   10 1
    12   10   11 1
    13   12   13 1
    14   13   14 1
    15   14   15 1
    16   13   16 1
    17   16   17 1
    18   17   18 1
    19   17   19 1
    20   19   20 1
    21   19   21 1
    22   12   21 1
    23   21   22 1
    24   12   23 1
    25    1   24 1
    26    2   25 1
    27    2   26 1
    28    3   27 1
    29    5   28 1
    30    6   29 1
    31    7   30 1
    32    8   31 1
    33    9   32 1
    34   10   33 1
    35   11   34 1
    36   12   35 1
    37   13   36 1
    38   14   37 1
    39   14   38 1
    40   15   39 1
    41   17   40 1
    42   18   41 1
    43   19   42 1
    44   20   43 1
    45   21   44 1
    46   22   45 1
@<TRIPOS>MOLECULE
*****
   23    23     0     0     0
SMALL
NO_CHARGES

@<TRIPOS>ATOM
      1 C1         -0.8444    1.4625    0.0000 CT        1 <0>         0.0000
      2 C2         -0.1299    1.0500    0.0000 CT        1 <0>         0.0000
      3 O1          0.5846    1.4625    0.0000 OS        1 <0>         0.0000
      4 C3          1.2990    1.0500    0.0000 CT        1 <0>         0.0000
      5 O2          2.0135    1.4625    0.0000 OH        1 <0>         0.0000
      6 C4          1.2990    0.2250    0.0000 CT        1 <0>         0.0000
      7 O3          2.0135   -0.1875    0.0000 OH        1 <0>         0.0000
      8 C5          0.5845   -0.1875    0.0000 CT        1 <0>         0.0000
      9 O4          0.5845   -1.0125    0.0000 OH        1 <0>         0.0000
     10 C6         -0.1299    0.2251    0.0000 CT        1 <0>         0.0000
     11 O5         -0.8444   -0.1874    0.0000 OH        1 <0>         0.0000
     12 H1         -0.8444    1.4625    0.0000 HC        1 <0>         0.0000
     13 H2         -0.8444    1.4625    0.0000 HC        1 <0>         0.0000
     14 H3         -0.8444    1.4625    0.0000 HC        1 <0>         0.0000
     15 H4         -0.1299    1.0500    0.0000 H1        1 <0>         0.0000
     16 H5          1.2990    1.0500    0.0000 H2        1 <0>         0.0000
     17 H6          2.0135    1.4625    0.0000 HO        1 <0>         0.0000
     18 H7          1.2990    0.2250    0.0000 H1        1 <0>         0.0000
     19 H8          2.0135   -0.1875    0.0000 HO        1 <0>         0.0000
     20 H9          0.5845   -0.1875    0.0000 H1        1 <0>         0.0000
     21 H10         0.5845   -1.0125    0.0000 HO        1 <0>         0.0000
     22 H11        -0.1299    0.2251    0.0000 H1        1 <0>         0.0000
     23 H12        -0.8444   -0.1874    0.0000 HO        1 <0>         0.0000
@<TRIPOS>BOND
     1    1    2 1
     2    2    3 1
     3    3    4 1
     4    4    5 1
     5    4    6 1
     6    6    7 1
     7    6    8 1
     8    8    9 1
     9    8   10 1
    10    2   10 1
    11   10   11 1
    12    1   12 1
    13    1   13 1
    14    1   14 1
    15    2   15 1
    16    4   16 1
    17    5   17 1
    18    6   18 1
    19    7   19 1
    20    8   20 1
    21    9   21 1
    22   10   22 1
    23   11   23 1
@<TRIPOS>MOLECULE
*****
   18    17     0     0     0
SMALL
NO_CHARGES

@<TRIPOS>ATOM
      1 O1         -0.1914    0.7145    0.0000 OH        1 <0>         0.0000
      2 C1          0.5230    1.1270    0.0000 CT        1 <0>         0.0000
      3 C2          1.2375    0.7145    0.0000 CT        1 <0>         0.0000
      4 O2          1.2375   -0.1105    0.0000 OH        1 <0>         0.0000
      5 C3          1.9520    1.1270    0.0000 CT        1 <0>         0.0000
      6 O3          1.9520    1.9520    0.0000 OH        1 <0>         0.0000
      7 C4          2.6664    0.7145    0.0000 CT        1 <0>         0.0000
      8 O4          3.3809    1.1270    0.0000 OH        1 <0>         0.0000
      9 H1         -0.1914    0.7145    0.0000 HO        1 <0>         0.0000
     10 H2          0.5230    1.1270    0.0000 H1        1 <0>         0.0000
     11 H3          0.5230    1.1270    0.0000 H1        1 <0>         0.0000
     12 H4          1.2375    0.7145    0.0000 H1        1 <0>         0.0000
     13 H5          1.2375   -0.1105    0.0000 HO        1 <0>         0.0000
     14 H6          1.9520    1.1270    0.0000 H1        1 <0>         0.0000
     15 H7          1.9520    1.9520    0.0000 HO        1 <0>         0.0000
     16 H8          2.6664    0.7145    0.0000 H1        1 <0>         0.0000
     17 H9          2.6664    0.7145    0.0000 H1        1 <0>         0.0000
     18 H10         3.3809    1.1270    0.0000 HO        1 <0>         0.0000
@<TRIPOS>BOND
     1    1    2 1
     2    2    3 1
     3    3    4 1
     4    3    5 1
     5    5    6 1
     6    5    7 1
     7    7    8 1
     8    1    9 1
     9    2   10 1
    10    2   11 1
    11    3   12 1
    12    4   13 1
    13    5   14 1
    14    6   15 1
    15    7   16 1
    16    7   17 1
    17    8   18 1
@<TRIPOS>MOLECULE
*****
   17    18     0     0     0
SMALL
NO_CHARGES

@<TRIPOS>ATOM
      1 C1          1.1270   -1.9520    0.0000 CJ        1 <0>         0.0000
      2 O1          0.3020   -1.9520    0.0000 OS        1 <0>         0.0000
      3 C2          0.7145   -1.2375    0.0000 CJ        1 <0>         0.0000
      4 C3          0.7145   -0.4125    0.0000 CA        1 <0>         0.0000
      5 C4          0.0000    0.0000    0.0000 CA        1 <0>         0.0000
      6 C5          0.0000    0.8250    0.0000 CA        1 <0>         0.0000
      7 C6          0.7145    1.2375    0.0000 CA        1 <0>         0.0000
      8 C7          1.4289    0.8250    0.0000 CA        1 <0>         0.0000
      9 C8          1.4289    0.0000    0.0000 CA        1 <0>         0.0000
     10 H1          1.1270   -1.9520    0.0000 H1        1 <0>         0.0000
     11 H2          1.1270   -1.9520    0.0000 H1        1 <0>         0.0000
     12 H3          0.7145   -1.2375    0.0000 H1        1 <0>         0.0000
     13 H4          0.0000    0.0000    0.0000 HA        1 <0>         0.0000
     14 H5          0.0000    0.8250    0.0000 HA        1 <0>         0.0000
     15 H6          0.7145    1.2375    0.0000 HA        1 <0>         0.0000
     16 H7          1.4289    0.8250    0.0000 HA        1 <0>         0.0000
     17 H8          1.4289    0.0000    0.0000 HA        1 <0>         0.0000
@<TRIPOS>BOND
     1    1    2 1
     2    2    3 1
     3    1    3 1
     4    3    4 1
     5    4    5 ar
     6    5    6 ar
     7    6    7 ar
     8    7    8 ar
     9    8    9 ar
    10    4    9 ar
    11    1   10 1
    12    1   11 1
    13    3   12 1
    14    5   13 1
    15    6   14 1
    16    7   15 1
    17    8   16 1
    18    9   17 1
@<TRIPOS>MOLECULE
*****
   28    29     0     0     0
SMALL
NO_CHARGES

@<TRIPOS>ATOM
      1 C1          1.6436    0.3570    0.0000 CT        1 <0>         0.0000
      2 C2          0.9807   -0.1341    0.0000 CT        1 <0>         0.0000
      3 C3          0.2526    0.2537    0.0000 CT        1 <0>         0.0000
      4 C4          1.1407   -0.9495    0.0000 CT        1 <0>         0.0000
      5 C5          0.5004   -1.3997    0.0000 CT        1 <0>         0.0000
      6 C6          0.1351   -2.0602    0.0000 CT        1 <0>         0.0000
      7 C7          0.9106   -1.6699    0.0000 CT        1 <0>         0.0000
      8 C8          0.9094   -2.4949    0.0000 CT        1 <0>         0.0000
      9 C9          1.6411   -2.0402    0.0000 CT        1 <0>         0.0000
     10 C10         1.9362   -1.4148    0.0000 CT        1 <0>         0.0000
     11 H1          1.6436    0.3570    0.0000 HC        1 <0>         0.0000
     12 H2          1.6436    0.3570    0.0000 HC        1 <0>         0.0000
     13 H3          1.6436    0.3570    0.0000 HC        1 <0>         0.0000
     14 H4          0.2526    0.2537    0.0000 HC        1 <0>         0.0000
     15 H5          0.2526    0.2537    0.0000 HC        1 <0>         0.0000
     16 H6          0.2526    0.2537    0.0000 HC        1 <0>         0.0000
     17 H7          1.1407   -0.9495    0.0000 HC        1 <0>         0.0000
     18 H8          0.5004   -1.3997    0.0000 HC        1 <0>         0.0000
     19 H9          0.5004   -1.3997    0.0000 HC        1 <0>         0.0000
     20 H10         0.1351   -2.0602    0.0000 HC        1 <0>         0.0000
     21 H11         0.1351   -2.0602    0.0000 HC        1 <0>         0.0000
     22 H12         0.9094   -2.4949    0.0000 HC        1 <0>         0.0000
     23 H13         0.9094   -2.4949    0.0000 HC        1 <0>         0.0000
     24 H14         0.9094   -2.4949    0.0000 HC        1 <0>         0.0000
     25 H15         1.6411   -2.0402    0.0000 HC        1 <0>         0.0000
     26 H16         1.6411   -2.0402    0.0000 HC        1 <0>         0.0000
     27 H17         1.9362   -1.4148    0.0000 HC        1 <0>         0.0000
     28 H18         1.9362   -1.4148    0.0000 HC        1 <0>         0.0000
@<TRIPOS>BOND
     1    1    2 1
     2    2    3 1
     3    2    4 1
     4    4    5 1
     5    5    6 1
     6    6    7 1
     7    2    7 1
     8    7    8 1
     9    7    9 1
    10    9   10 1
    11    4   10 1
    12    1   11 1
    13    1   12 1
    14    1   13 1
    15    3   14 1
    16    3   15 1
    17    3   16 1
    18    4   17 1
    19    5   18 1
    20    5   19 1
    21    6   20 1
    22    6   21 1
    23    8   22 1
    24    8   23 1
    25    8   24 1
    26    9   25 1
    27    9   26 1
    28   10   27 1
    29   10   28 1
@<TRIPOS>MOLECULE
*****
   26    25     0     0     0
SMALL
NO_CHARGES

@<TRIPOS>ATOM
      1 C1          2.9980    2.5559    0.0000 CT        1 <0>         0.0000
      2 C2          3.7125    2.1434    0.0000 CT        1 <0>         0.0000
      3 C3          4.4270    2.5559    0.0000 CT        1 <0>         0.0000
      4 C4          5.1414    2.1434    0.0000 CT        1 <0>         0.0000
      5 C5          5.8559    2.5559    0.0000 CT        1 <0>         0.0000
      6 C6          6.5704    2.1434    0.0000 CT        1 <0>         0.0000
      7 C7          7.2849    2.5559    0.0000 CT        1 <0>         0.0000
      8 C8          7.9993    2.1434    0.0000 C         1 <0>         0.0000
      9 O1          8.7138    2.5559    0.0000 OH        1 <0>         0.0000
     10 O2          7.9993    1.3184    0.0000 O         1 <0>         0.0000
     11 H1          2.9980    2.5559    0.0000 HC        1 <0>         0.0000
     12 H2          2.9980    2.5559    0.0000 HC        1 <0>         0.0000
     13 H3          2.9980    2.5559    0.0000 HC        1 <0>         0.0000
     14 H4          3.7125    2.1434    0.0000 HC        1 <0>         0.0000
     15 H5          3.7125    2.1434    0.0000 HC        1 <0>         0.0000
     16 H6          4.4270    2.5559    0.0000 HC        1 <0>         0.0000
     17 H7          4.4270    2.5559    0.0000 HC        1 <0>         0.0000
     18 H8          5.1414    2.1434    0.0000 HC        1 <0>         0.0000
     19 H9          5.1414    2.1434    0.0000 HC        1 <0>         0.0000
     20 H10         5.8559    2.5559    0.0000 HC        1 <0>         0.0000
     21 H11         5.8559    2.5559    0.0000 HC        1 <0>         0.0000
     22 H12         6.5704    2.1434    0.0000 HC        1 <0>         0.0000
     23 H13         6.5704    2.1434    0.0000 HC        1 <0>         0.0000
     24 H14         7.2849    2.5559    0.0000 HC        1 <0>         0.0000
     25 H15         7.2849    2.5559    0.0000 HC        1 <0>         0.0000
     26 H16         8.7138    2.5559    0.0000 HO        1 <0>         0.0000
@<TRIPOS>BOND
     1    1    2 1
     2    2    3 1
     3    3    4 1
     4    4    5 1
     5    5    6 1
     6    6    7 1
     7    7    8 1
     8    8    9 1
     9    8   10 2
    10    1   11 1
    11    1   12 1
    12    1   13 1
    13    2   14 1
    14    2   15 1
    15    3   16 1
    16    3   17 1
    17    4   18 1
    18    4   19 1
    19    5   20 1
    20    5   21 1
    21    6   22 1
    22    6   23 1
    23    7   24 1
    24    7   25 1
    25    9   26 1
@<TRIPOS>MOLECULE
*****
   28    28     0     0     0
SMALL
NO_CHARGES

@<TRIPOS>ATOM
      1 O1          2.8579    2.4750    0.0000 OH        1 <0>         0.0000
      2 C1          2.1434    2.0625    0.0000 CT        1 <0>         0.0000
      3 C2          2.1434    1.2375    0.0000 CT        1 <0>         0.0000
      4 O2          2.8579    0.8250    0.0000 OH        1 <0>         0.0000
      5 C3          1.4289    0.8250    0.0000 CT        1 <0>         0.0000
      6 O3          1.4289    0.0000    0.0000 OS        1 <0>         0.0000
      7 C4          0.7145   -0.4125    0.0000 CT        1 <0>         0.0000
      8 O4          0.7145   -1.2375    0.0000 OH        1 <0>         0.0000
      9 C5          0.0000    0.0000    0.0000 CT        1 <0>         0.0000
     10 O5         -0.7145   -0.4125    0.0000 OH        1 <0>         0.0000
     11 C6          0.0000    0.8250    0.0000 CT        1 <0>         0.0000
     12 O6         -0.7145    1.2375    0.0000 OH        1 <0>         0.0000
     13 C7          0.7145    1.2375    0.0000 CT        1 <0>         0.0000
     14 O7          0.7145    2.0625    0.0000 OH        1 <0>         0.0000
     15 H1          2.8579    2.4750    0.0000 HO        1 <0>         0.0000
     16 H2          2.1434    2.0625    0.0000 H1        1 <0>         0.0000
     17 H3          2.1434    2.0625    0.0000 H1        1 <0>         0.0000
     18 H4          2.1434    1.2375    0.0000 H1        1 <0>         0.0000
     19 H5          2.8579    0.8250    0.0000 HO        1 <0>         0.0000
     20 H6          1.4289    0.8250    0.0000 H1        1 <0>         0.0000
     21 H7          0.7145   -0.4125    0.0000 H2        1 <0>         0.0000
     22 H8          0.7145   -1.2375    0.0000 HO        1 <0>         0.0000
     23 H9          0.0000    0.0000    0.0000 H1        1 <0>         0.0000
     24 H10        -0.7145   -0.4125    0.0000 HO        1 <0>         0.0000
     25 H11         0.0000    0.8250    0.0000 H1        1 <0>         0.0000
     26 H12        -0.7145    1.2375    0.0000 HO        1 <0>         0.0000
     27 H13         0.7145    1.2375    0.0000 H1        1 <0>         0.0000
     28 H14         0.7145    2.0625    0.0000 HO        1 <0>         0.0000
@<TRIPOS>BOND
     1    1    2 1
     2    2    3 1
     3    3    4 1
     4    3    5 1
     5    5    6 1
     6    6    7 1
     7    7    8 1
     8    7    9 1
     9    9   10 1
    10    9   11 1
    11   11   12 1
    12   11   13 1
    13    5   13 1
    14   13   14 1
    15    1   15 1
    16    2   16 1
    17    2   17 1
    18    3   18 1
    19    4   19 1
    20    5   20 1
    21    7   21 1
    22    8   22 1
    23    9   23 1
    24   10   24 1
    25   11   25 1
    26   12   26 1
    27   13   27 1
    28   14   28 1
@<TRIPOS>MOLECULE
*****
   74    77     0     0     0
SMALL
NO_CHARGES

@<TRIPOS>ATOM
      1 C1          6.9960   -2.0886    0.0000 CT        1 <0>         0.0000
      2 C2          7.7104   -2.5011    0.0000 CT        1 <0>         0.0000
      3 C3          7.7104   -3.3261    0.0000 CT        1 <0>         0.0000
      4 C4          8.4249   -2.0886    0.0000 CT        1 <0>         0.0000
      5 C5          9.1394   -2.5011    0.0000 CT        1 <0>         0.0000
      6 C6          9.8538   -2.0886    0.0000 CT        1 <0>         0.0000
      7 C7         10.5683   -2.5011    0.0000 CT        1 <0>         0.0000
      8 C8         10.5683   -3.3261    0.0000 CT        1 <0>         0.0000
      9 C9         11.2828   -2.0886    0.0000 CT        1 <0>         0.0000
     10 C10        11.3690   -1.2682    0.0000 CT        1 <0>         0.0000
     11 C11        12.1760   -1.0966    0.0000 CT        1 <0>         0.0000
     12 C12        12.5885   -1.8111    0.0000 CT        1 <0>         0.0000
     13 C13        13.3955   -1.9826    0.0000 CT        1 <0>         0.0000
     14 C14        13.9475   -1.3695    0.0000 CT        1 <0>         0.0000
     15 C15        14.7545   -1.5411    0.0000 CM        1 <0>         0.0000
     16 C16        15.0094   -2.3257    0.0000 CM        1 <0>         0.0000
     17 C17        15.8164   -2.4972    0.0000 CT        1 <0>         0.0000
     18 C18        16.0713   -3.2818    0.0000 CT        1 <0>         0.0000
     19 O1         16.8783   -3.4534    0.0000 OH        1 <0>         0.0000
     20 C19        15.5193   -3.8949    0.0000 CT        1 <0>         0.0000
     21 C20        14.7123   -3.7234    0.0000 CT        1 <0>         0.0000
     22 C21        14.4574   -2.9388    0.0000 CT        1 <0>         0.0000
     23 C22        13.9053   -3.5519    0.0000 CT        1 <0>         0.0000
     24 C23        13.6504   -2.7673    0.0000 CT        1 <0>         0.0000
     25 C24        13.0984   -3.3803    0.0000 CT        1 <0>         0.0000
     26 C25        12.2914   -3.2088    0.0000 CT        1 <0>         0.0000
     27 C26        12.0365   -2.4242    0.0000 CT        1 <0>         0.0000
     28 C27        11.4234   -2.9762    0.0000 CT        1 <0>         0.0000
     29 H1          6.9960   -2.0886    0.0000 HC        1 <0>         0.0000
     30 H2          6.9960   -2.0886    0.0000 HC        1 <0>         0.0000
     31 H3          6.9960   -2.0886    0.0000 HC        1 <0>         0.0000
     32 H4          7.7104   -2.5011    0.0000 HC        1 <0>         0.0000
     33 H5          7.7104   -3.3261    0.0000 HC        1 <0>         0.0000
     34 H6          7.7104   -3.3261    0.0000 HC        1 <0>         0.0000
     35 H7          7.7104   -3.3261    0.0000 HC        1 <0>         0.0000
     36 H8          8.4249   -2.0886    0.0000 HC        1 <0>         0.0000
     37 H9          8.4249   -2.0886    0.0000 HC        1 <0>         0.0000
     38 H10         9.1394   -2.5011    0.0000 HC        1 <0>         0.0000
     39 H11         9.1394   -2.5011    0.0000 HC        1 <0>         0.0000
     40 H12         9.8538   -2.0886    0.0000 HC        1 <0>         0.0000
     41 H13         9.8538   -2.0886    0.0000 HC        1 <0>         0.0000
     42 H14        10.5683   -2.5011    0.0000 HC        1 <0>         0.0000
     43 H15        10.5683   -3.3261    0.0000 HC        1 <0>         0.0000
     44 H16        10.5683   -3.3261    0.0000 HC        1 <0>         0.0000
     45 H17        10.5683   -3.3261    0.0000 HC        1 <0>         0.0000
     46 H18        11.2828   -2.0886    0.0000 HC        1 <0>         0.0000
     47 H19        11.3690   -1.2682    0.0000 HC        1 <0>         0.0000
     48 H20        11.3690   -1.2682    0.0000 HC        1 <0>         0.0000
     49 H21        12.1760   -1.0966    0.0000 HC        1 <0>         0.0000
     50 H22        12.1760   -1.0966    0.0000 HC        1 <0>         0.0000
     51 H23        12.5885   -1.8111    0.0000 HC        1 <0>         0.0000
     52 H24        13.3955   -1.9826    0.0000 HC        1 <0>         0.0000
     53 H25        13.9475   -1.3695    0.0000 HC        1 <0>         0.0000
     54 H26        13.9475   -1.3695    0.0000 HC        1 <0>         0.0000
     55 H27        14.7545   -1.5411    0.0000 HA        1 <0>         0.0000
     56 H28        15.8164   -2.4972    0.0000 HC        1 <0>         0.0000
     57 H29        15.8164   -2.4972    0.0000 HC        1 <0>         0.0000
     58 H30        16.0713   -3.2818    0.0000 H1        1 <0>         0.0000
     59 H31        16.8783   -3.4534    0.0000 HO        1 <0>         0.0000
     60 H32        15.5193   -3.8949    0.0000 HC        1 <0>         0.0000
     61 H33        15.5193   -3.8949    0.0000 HC        1 <0>         0.0000
     62 H34        14.7123   -3.7234    0.0000 HC        1 <0>         0.0000
     63 H35        14.7123   -3.7234    0.0000 HC        1 <0>         0.0000
     64 H36        13.9053   -3.5519    0.0000 HC        1 <0>         0.0000
     65 H37        13.9053   -3.5519    0.0000 HC        1 <0>         0.0000
     66 H38        13.9053   -3.5519    0.0000 HC        1 <0>         0.0000
     67 H39        13.6504   -2.7673    0.0000 HC        1 <0>         0.0000
     68 H40        13.0984   -3.3803    0.0000 HC        1 <0>         0.0000
     69 H41        13.0984   -3.3803    0.0000 HC        1 <0>         0.0000
     70 H42        12.2914   -3.2088    0.0000 HC        1 <0>         0.0000
     71 H43        12.2914   -3.2088    0.0000 HC        1 <0>         0.0000
     72 H44        11.4234   -2.9762    0.0000 HC        1 <0>         0.0000
     73 H45        11.4234   -2.9762    0.0000 HC        1 <0>         0.0000
     74 H46        11.4234   -2.9762    0.0000 HC        1 <0>         0.0000
@<TRIPOS>BOND
     1    1    2 1
     2    2    3 1
     3    2    4 1
     4    4    5 1
     5    5    6 1
     6    6    7 1
     7    7    8 1
     8    7    9 1
     9    9   10 1
    10   10   11 1
    11   11   12 1
    12   12   13 1
    13   13   14 1
    14   14   15 1
    15   15   16 2
    16   16   17 1
    17   17   18 1
    18   18   19 1
    19   18   20 1
    20   20   21 1
    21   21   22 1
    22   16   22 1
    23   22   23 1
    24   22   24 1
    25   13   24 1
    26   24   25 1
    27   25   26 1
    28   26   27 1
    29    9   27 1
    30   12   27 1
    31   27   28 1
    32    1   29 1
    33    1   30 1
    34    1   31 1
    35    2   32 1
    36    3   33 1
    37    3   34 1
    38    3   35 1
    39    4   36 1
    40    4   37 1
    41    5   38 1
    42    5   39 1
    43    6   40 1
    44    6   41 1
    45    7   42 1
    46    8   43 1
    47    8   44 1
    48    8   45 1
    49    9   46 1
    50   10   47 1
    51   10   48 1
    52   11   49 1
    53   11   50 1
    54   12   51 1
    55   13   52 1
    56   14   53 1
    57   14   54 1
    58   15   55 1
    59   17   56 1
    60   17   57 1
    61   18   58 1
    62   19   59 1
    63   20   60 1
    64   20   61 1
    65   21   62 1
    66   21   63 1
    67   23   64 1
    68   23   65 1
    69   23   66 1
    70   24   67 1
    71   25   68 1
    72   25   69 1
    73   26   70 1
    74   26   71 1
    75   28   72 1
    76   28   73 1
    77   28   74 1
@<TRIPOS>MOLECULE
*****
   22    22     0     0     0
SMALL
NO_CHARGES

@<TRIPOS>ATOM
      1 O1          2.1434    1.2375    0.0000 OH        1 <0>         0.0000
      2 C1          1.4289    0.8250    0.0000 CT        1 <0>         0.0000
      3 C2          1.4289    0.0000    0.0000 CT        1 <0>         0.0000
      4 C3          0.7145   -0.4125    0.0000 CT        1 <0>         0.0000
      5 O2          0.0000    0.0000    0.0000 OS        1 <0>         0.0000
      6 C4          0.0000    0.8250    0.0000 CT        1 <0>         0.0000
      7 O3         -0.7145    1.2375    0.0000 OH        1 <0>         0.0000
      8 C5          0.7145    1.2375    0.0000 CT        1 <0>         0.0000
      9 O4          0.7145    2.0625    0.0000 OH        1 <0>         0.0000
     10 C6          0.7145   -1.2375    0.0000 C         1 <0>         0.0000
     11 O5          1.4289   -1.6500    0.0000 OH        1 <0>         0.0000
     12 O6          0.0000   -1.6500    0.0000 O         1 <0>         0.0000
     13 H1          2.1434    1.2375    0.0000 HO        1 <0>         0.0000
     14 H2          1.4289    0.8250    0.0000 H1        1 <0>         0.0000
     15 H3          1.4289    0.0000    0.0000 HC        1 <0>         0.0000
     16 H4          1.4289    0.0000    0.0000 HC        1 <0>         0.0000
     17 H5          0.7145   -0.4125    0.0000 H1        1 <0>         0.0000
     18 H6          0.0000    0.8250    0.0000 H2        1 <0>         0.0000
     19 H7         -0.7145    1.2375    0.0000 HO        1 <0>         0.0000
     20 H8          0.7145    1.2375    0.0000 H1        1 <0>         0.0000
     21 H9          0.7145    2.0625    0.0000 HO        1 <0>         0.0000
     22 H10         1.4289   -1.6500    0.0000 HO        1 <0>         0.0000
@<TRIPOS>BOND
     1    1    2 1
     2    2    3 1
     3    3    4 1
     4    4    5 1
     5    5    6 1
     6    6    7 1
     7    6    8 1
     8    2    8 1
     9    8    9 1
    10    4   10 1
    11   10   11 1
    12   10   12 2
    13    1   13 1
    14    2   14 1
    15    3   15 1
    16    3   16 1
    17    4   17 1
    18    6   18 1
    19    7   19 1
    20    8   20 1
    21    9   21 1
    22   11   22 1
@<TRIPOS>MOLECULE
*****
   13    12     0     0     0
SMALL
NO_CHARGES

@<TRIPOS>ATOM
      1 C1          1.2375    2.1434    0.0000 CT        1 <0>         0.0000
      2 C2          0.8250    1.4289    0.0000 CT        1 <0>         0.0000
      3 C3          1.2375    0.7145    0.0000 C         1 <0>         0.0000
      4 O1          2.0625    0.7145    0.0000 O         1 <0>         0.0000
      5 C4          0.8250    0.0000    0.0000 C         1 <0>         0.0000
      6 O2          1.2375   -0.7145    0.0000 OH        1 <0>         0.0000
      7 O3          0.0000    0.0000    0.0000 O         1 <0>         0.0000
      8 H1          1.2375    2.1434    0.0000 HC        1 <0>         0.0000
      9 H2          1.2375    2.1434    0.0000 HC        1 <0>         0.0000
     10 H3          1.2375    2.1434    0.0000 HC        1 <0>         0.0000
     11 H4          0.8250    1.4289    0.0000 HC        1 <0>         0.0000
     12 H5          0.8250    1.4289    0.0000 HC        1 <0>         0.0000
     13 H6          1.2375   -0.7145    0.0000 HO        1 <0>         0.0000
@<TRIPOS>BOND
     1    1    2 1
     2    2    3 1
     3    3    4 2
     4    3    5 1
     5    5    6 1
     6    5    7 2
     7    1    8 1
     8    1    9 1
     9    1   10 1
    10    2   11 1
    11    2   12 1
    12    6   13 1
@<TRIPOS>MOLECULE
*****
   54    53     0     0     0
SMALL
NO_CHARGES

@<TRIPOS>ATOM
      1 C1         -8.0506    6.0770    0.0000 CT        1 <0>         0.0000
      2 C2         -7.3362    5.6645    0.0000 CT        1 <0>         0.0000
      3 C3         -7.3362    4.8395    0.0000 CT        1 <0>         0.0000
      4 C4         -6.6217    4.4270    0.0000 CT        1 <0>         0.0000
      5 C5         -6.6217    3.6020    0.0000 CT        1 <0>         0.0000
      6 C6         -5.9072    3.1895    0.0000 CM        1 <0>         0.0000
      7 C7         -5.9072    2.3645    0.0000 CM        1 <0>         0.0000
      8 C8         -5.1927    1.9520    0.0000 CT        1 <0>         0.0000
      9 C9         -4.4783    2.3645    0.0000 CM        1 <0>         0.0000
     10 C10        -3.7638    1.9520    0.0000 CM        1 <0>         0.0000
     11 C11        -3.0493    2.3645    0.0000 CT        1 <0>         0.0000
     12 C12        -2.3349    1.9520    0.0000 CM        1 <0>         0.0000
     13 C13        -2.3349    1.1270    0.0000 CM        1 <0>         0.0000
     14 C14        -1.6204    0.7145    0.0000 CT        1 <0>         0.0000
     15 C15        -0.9059    1.1270    0.0000 CM        1 <0>         0.0000
     16 C16        -0.1914    0.7145    0.0000 CM        1 <0>         0.0000
     17 C17         0.5230    1.1270    0.0000 CT        1 <0>         0.0000
     18 C18         1.2375    0.7145    0.0000 CT        1 <0>         0.0000
     19 C19         1.9520    1.1270    0.0000 CT        1 <0>         0.0000
     20 C20         2.6664    0.7145    0.0000 C         1 <0>         0.0000
     21 O1          3.3809    1.1270    0.0000 OH        1 <0>         0.0000
     22 O2          2.6664   -0.1105    0.0000 O         1 <0>         0.0000
     23 H1         -8.0506    6.0770    0.0000 HC        1 <0>         0.0000
     24 H2         -8.0506    6.0770    0.0000 HC        1 <0>         0.0000
     25 H3         -8.0506    6.0770    0.0000 HC        1 <0>         0.0000
     26 H4         -7.3362    5.6645    0.0000 HC        1 <0>         0.0000
     27 H5         -7.3362    5.6645    0.0000 HC        1 <0>         0.0000
     28 H6         -7.3362    4.8395    0.0000 HC        1 <0>         0.0000
     29 H7         -7.3362    4.8395    0.0000 HC        1 <0>         0.0000
     30 H8         -6.6217    4.4270    0.0000 HC        1 <0>         0.0000
     31 H9         -6.6217    4.4270    0.0000 HC        1 <0>         0.0000
     32 H10        -6.6217    3.6020    0.0000 HC        1 <0>         0.0000
     33 H11        -6.6217    3.6020    0.0000 HC        1 <0>         0.0000
     34 H12        -5.9072    3.1895    0.0000 HA        1 <0>         0.0000
     35 H13        -5.9072    2.3645    0.0000 HA        1 <0>         0.0000
     36 H14        -5.1927    1.9520    0.0000 HC        1 <0>         0.0000
     37 H15        -5.1927    1.9520    0.0000 HC        1 <0>         0.0000
     38 H16        -4.4783    2.3645    0.0000 HA        1 <0>         0.0000
     39 H17        -3.7638    1.9520    0.0000 HA        1 <0>         0.0000
     40 H18        -3.0493    2.3645    0.0000 HC        1 <0>         0.0000
     41 H19        -3.0493    2.3645    0.0000 HC        1 <0>         0.0000
     42 H20        -2.3349    1.9520    0.0000 HA        1 <0>         0.0000
     43 H21        -2.3349    1.1270    0.0000 HA        1 <0>         0.0000
     44 H22        -1.6204    0.7145    0.0000 HC        1 <0>         0.0000
     45 H23        -1.6204    0.7145    0.0000 HC        1 <0>         0.0000
     46 H24        -0.9059    1.1270    0.0000 HA        1 <0>         0.0000
     47 H25        -0.1914    0.7145    0.0000 HA        1 <0>         0.0000
     48 H26         0.5230    1.1270    0.0000 HC        1 <0>         0.0000
     49 H27         0.5230    1.1270    0.0000 HC        1 <0>         0.0000
     50 H28         1.2375    0.7145    0.0000 HC        1 <0>         0.0000
     51 H29         1.2375    0.7145    0.0000 HC        1 <0>         0.0000
     52 H30         1.9520    1.1270    0.0000 HC        1 <0>         0.0000
     53 H31         1.9520    1.1270    0.0000 HC        1 <0>         0.0000
     54 H32         3.3809    1.1270    0.0000 HO        1 <0>         0.0000
@<TRIPOS>BOND
     1    1    2 1
     2    2    3 1
     3    3    4 1
     4    4    5 1
     5    5    6 1
     6    6    7 2
     7    7    8 1
     8    8    9 1
     9    9   10 2
    10   10   11 1
    11   11   12 1
    12   12   13 2
    13   13   14 1
    14   14   15 1
    15   15   16 2
    16   16   17 1
    17   17   18 1
    18   18   19 1
    19   19   20 1
    20   20   21 1
    21   20   22 2
    22    1   23 1
    23    1   24 1
    24    1   25 1
    25    2   26 1
    26    2   27 1
    27    3   28 1
    28    3   29 1
    29    4   30 1
    30    4   31 1
    31    5   32 1
    32    5   33 1
    33    6   34 1
    34    7   35 1
    35    8   36 1
    36    8   37 1
    37    9   38 1
    38   10   39 1
    39   11   40 1
    40   11   41 1
    41   12   42 1
    42   13   43 1
    43   14   44 1
    44   14   45 1
    45   15   46 1
    46   16   47 1
    47   17   48 1
    48   17   49 1
    49   18   50 1
    50   18   51 1
    51   19   52 1
    52   19   53 1
    53   21   54 1
@<TRIPOS>MOLECULE
DSB
   30    29     0     0     0
SMALL
NO_CHARGES

@<TRIPOS>ATOM
      1 C1         -3.0605    0.8344    0.0000 C         1 <0>         0.0000
      2 O1         -3.7749    0.4219    0.0000 O         1 <0>         0.0000
      3 C2         -2.3460    0.4219    0.0000 CT        1 <0>         0.0000
      4 C3         -1.6315    0.8344    0.0000 CT        1 <0>         0.0000
      5 C4         -0.2026    0.8344    0.0000 CT        1 <0>         0.0000
      6 O2         -3.0605    1.6594    0.0000 OH        1 <0>         0.0000
      7 C5          0.5119    0.4219    0.0000 CT        1 <0>         0.0000
      8 C6          1.9408    0.4219    0.0000 CT        1 <0>         0.0000
      9 C7          2.6553    0.8344    0.0000 CT        1 <0>         0.0000
     10 C8          3.3698    0.4219    0.0000 C         1 <0>         0.0000
     11 O3          4.0842    0.8344    0.0000 OH        1 <0>         0.0000
     12 O4          3.3698   -0.4031    0.0000 O         1 <0>         0.0000
     13 C9          1.2264    0.8344    0.0000 C         1 <0>         0.0000
     14 C10        -0.9171    0.4219    0.0000 C         1 <0>         0.0000
     15 O5         -0.9171   -0.4031    0.0000 O         1 <0>         0.0000
     16 O6          1.2264    1.6594    0.0000 O         1 <0>         0.0000
     17 H1         -2.3460    0.4219    0.0000 HC        1 <0>         0.0000
     18 H2         -2.3460    0.4219    0.0000 HC        1 <0>         0.0000
     19 H3         -1.6315    0.8344    0.0000 HC        1 <0>         0.0000
     20 H4         -1.6315    0.8344    0.0000 HC        1 <0>         0.0000
     21 H5         -0.2026    0.8344    0.0000 HC        1 <0>         0.0000
     22 H6         -0.2026    0.8344    0.0000 HC        1 <0>         0.0000
     23 H7         -3.0605    1.6594    0.0000 HO        1 <0>         0.0000
     24 H8          0.5119    0.4219    0.0000 HC        1 <0>         0.0000
     25 H9          0.5119    0.4219    0.0000 HC        1 <0>         0.0000
     26 H10         1.9408    0.4219    0.0000 HC        1 <0>         0.0000
     27 H11         1.9408    0.4219    0.0000 HC        1 <0>         0.0000
     28 H12         2.6553    0.8344    0.0000 HC        1 <0>         0.0000
     29 H13         2.6553    0.8344    0.0000 HC        1 <0>         0.0000
     30 H14         4.0842    0.8344    0.0000 HO        1 <0>         0.0000
@<TRIPOS>BOND
     1    1    2 2
     2    1    3 1
     3    1    6 1
     4    3    4 1
     5    4   14 1
     6    5    7 1
     7    5   14 1
     8    7   13 1
     9    8    9 1
    10    8   13 1
    11    9   10 1
    12   10   11 1
    13   10   12 2
    14   13   16 2
    15   14   15 2
    16    3   17 1
    17    3   18 1
    18    4   19 1
    19    4   20 1
    20    5   21 1
    21    5   22 1
    22    6   23 1
    23    7   24 1
    24    7   25 1
    25    8   26 1
    26    8   27 1
    27    9   28 1
    28    9   29 1
    29   11   30 1
@<TRIPOS>MOLECULE
*****
   20    19     0     0     0
SMALL
NO_CHARGES

@<TRIPOS>ATOM
      1 O1          1.7605    1.8414    0.0000 OH        1 <0>         0.0000
      2 C1          2.4750    1.4289    0.0000 C         1 <0>         0.0000
      3 O2          2.4750    0.6039    0.0000 O         1 <0>         0.0000
      4 C2          3.1895    1.8414    0.0000 CT        1 <0>         0.0000
      5 C3          3.9039    1.4289    0.0000 CT        1 <0>         0.0000
      6 C4          4.6184    1.8414    0.0000 CT        1 <0>         0.0000
      7 C5          5.3329    1.4289    0.0000 C         1 <0>         0.0000
      8 O3          6.0474    1.8414    0.0000 OH        1 <0>         0.0000
      9 O4          5.3329    0.6039    0.0000 O         1 <0>         0.0000
     10 C6          3.9039    0.6039    0.0000 C         1 <0>         0.0000
     11 O5          4.6184    0.1914    0.0000 OH        1 <0>         0.0000
     12 O6          3.1895    0.1914    0.0000 O         1 <0>         0.0000
     13 H1          1.7605    1.8414    0.0000 HO        1 <0>         0.0000
     14 H2          3.1895    1.8414    0.0000 HC        1 <0>         0.0000
     15 H3          3.1895    1.8414    0.0000 HC        1 <0>         0.0000
     16 H4          3.9039    1.4289    0.0000 HC        1 <0>         0.0000
     17 H5          4.6184    1.8414    0.0000 HC        1 <0>         0.0000
     18 H6          4.6184    1.8414    0.0000 HC        1 <0>         0.0000
     19 H7          6.0474    1.8414    0.0000 HO        1 <0>         0.0000
     20 H8          4.6184    0.1914    0.0000 HO        1 <0>         0.0000
@<TRIPOS>BOND
     1    1    2 1
     2    2    3 2
     3    2    4 1
     4    4    5 1
     5    5    6 1
     6    6    7 1
     7    7    8 1
     8    7    9 2
     9    5   10 1
    10   10   11 1
    11   10   12 2
    12    1   13 1
    13    4   14 1
    14    4   15 1
    15    5   16 1
    16    6   17 1
    17    6   18 1
    18    8   19 1
    19   11   20 1
@<TRIPOS>MOLECULE
*****
   22    22     0     0     0
SMALL
NO_CHARGES

@<TRIPOS>ATOM
      1 O1          2.1434    2.0625    0.0000 OH        1 <0>         0.0000
      2 C1          2.1434    1.2375    0.0000 CT        1 <0>         0.0000
      3 C2          1.4289    0.8250    0.0000 CT        1 <0>         0.0000
      4 O2          1.4289    0.0000    0.0000 OS        1 <0>         0.0000
      5 C3          0.7145   -0.4125    0.0000 C         1 <0>         0.0000
      6 O3          0.7145   -1.2375    0.0000 O         1 <0>         0.0000
      7 C4          0.0000    0.0000    0.0000 CT        1 <0>         0.0000
      8 O4         -0.7145   -0.4125    0.0000 OH        1 <0>         0.0000
      9 C5          0.0000    0.8250    0.0000 CT        1 <0>         0.0000
     10 O5         -0.7145    1.2375    0.0000 OH        1 <0>         0.0000
     11 C6          0.7145    1.2375    0.0000 CT        1 <0>         0.0000
     12 O6          0.7145    2.0625    0.0000 OH        1 <0>         0.0000
     13 H1          2.1434    2.0625    0.0000 HO        1 <0>         0.0000
     14 H2          2.1434    1.2375    0.0000 H1        1 <0>         0.0000
     15 H3          2.1434    1.2375    0.0000 H1        1 <0>         0.0000
     16 H4          1.4289    0.8250    0.0000 H1        1 <0>         0.0000
     17 H5          0.0000    0.0000    0.0000 H1        1 <0>         0.0000
     18 H6         -0.7145   -0.4125    0.0000 HO        1 <0>         0.0000
     19 H7          0.0000    0.8250    0.0000 H1        1 <0>         0.0000
     20 H8         -0.7145    1.2375    0.0000 HO        1 <0>         0.0000
     21 H9          0.7145    1.2375    0.0000 H1        1 <0>         0.0000
     22 H10         0.7145    2.0625    0.0000 HO        1 <0>         0.0000
@<TRIPOS>BOND
     1    1    2 1
     2    2    3 1
     3    3    4 1
     4    4    5 1
     5    5    6 2
     6    5    7 1
     7    7    8 1
     8    7    9 1
     9    9   10 1
    10    9   11 1
    11    3   11 1
    12   11   12 1
    13    1   13 1
    14    2   14 1
    15    2   15 1
    16    3   16 1
    17    7   17 1
    18    8   18 1
    19    9   19 1
    20   10   20 1
    21   11   21 1
    22   12   22 1
@<TRIPOS>MOLECULE
*****
   18    18     0     0     0
SMALL
NO_CHARGES

@<TRIPOS>ATOM
      1 O1         -0.7145    3.7125    0.0000 O         1 <0>         0.0000
      2 C1          0.0000    3.3000    0.0000 C         1 <0>         0.0000
      3 O2          0.0000    2.4750    0.0000 OS        1 <0>         0.0000
      4 C2          0.7145    2.0625    0.0000 CT        1 <0>         0.0000
      5 C3          0.7145    1.2375    0.0000 CA        1 <0>         0.0000
      6 C4          1.4289    0.8250    0.0000 CA        1 <0>         0.0000
      7 C5          1.4289    0.0000    0.0000 CA        1 <0>         0.0000
      8 C6          0.7145   -0.4125    0.0000 CA        1 <0>         0.0000
      9 C7          0.0000    0.0000    0.0000 CA        1 <0>         0.0000
     10 C8          0.0000    0.8250    0.0000 CA        1 <0>         0.0000
     11 H1          0.0000    3.3000    0.0000 H5        1 <0>         0.0000
     12 H2          0.7145    2.0625    0.0000 H1        1 <0>         0.0000
     13 H3          0.7145    2.0625    0.0000 H1        1 <0>         0.0000
     14 H4          1.4289    0.8250    0.0000 HA        1 <0>         0.0000
     15 H5          1.4289    0.0000    0.0000 HA        1 <0>         0.0000
     16 H6          0.7145   -0.4125    0.0000 HA        1 <0>         0.0000
     17 H7          0.0000    0.0000    0.0000 HA        1 <0>         0.0000
     18 H8          0.0000    0.8250    0.0000 HA        1 <0>         0.0000
@<TRIPOS>BOND
     1    1    2 2
     2    2    3 1
     3    3    4 1
     4    4    5 1
     5    5    6 ar
     6    6    7 ar
     7    7    8 ar
     8    8    9 ar
     9    9   10 ar
    10    5   10 ar
    11    2   11 1
    12    4   12 1
    13    4   13 1
    14    6   14 1
    15    7   15 1
    16    8   16 1
    17    9   17 1
    18   10   18 1
@<TRIPOS>MOLECULE
*****
   29    31     0     0     0
SMALL
NO_CHARGES

@<TRIPOS>ATOM
      1 C1          4.0668   -0.1271    0.0000 CT        1 <0>         0.0000
      2 C2          4.0668    0.6979    0.0000 CA        1 <0>         0.0000
      3 C3          4.7812    1.1104    0.0000 CA        1 <0>         0.0000
      4 C4          4.7812    1.9354    0.0000 C         1 <0>         0.0000
      5 O1          5.4957    2.3479    0.0000 O         1 <0>         0.0000
      6 O2          4.0668    2.3479    0.0000 OS        1 <0>         0.0000
      7 C5          3.3523    1.9354    0.0000 CB        1 <0>         0.0000
      8 C6          3.3523    1.1104    0.0000 CB        1 <0>         0.0000
      9 C7          2.6378    0.6979    0.0000 CA        1 <0>         0.0000
     10 C8          1.9233    1.1104    0.0000 CB        1 <0>         0.0000
     11 C9          1.1387    0.8555    0.0000 CC        1 <0>         0.0000
     12 C10         0.6538    1.5229    0.0000 CW        1 <0>         0.0000
     13 O3          1.1387    2.1904    0.0000 OS        1 <0>         0.0000
     14 C11         1.9233    1.9354    0.0000 CB        1 <0>         0.0000
     15 C12         2.6378    2.3479    0.0000 CA        1 <0>         0.0000
     16 C13         2.6378    3.1729    0.0000 CT        1 <0>         0.0000
     17 C14        -0.1712    1.5229    0.0000 CT        1 <0>         0.0000
     18 H1          4.0668   -0.1271    0.0000 HC        1 <0>         0.0000
     19 H2          4.0668   -0.1271    0.0000 HC        1 <0>         0.0000
     20 H3          4.0668   -0.1271    0.0000 HC        1 <0>         0.0000
     21 H4          4.7812    1.1104    0.0000 HA        1 <0>         0.0000
     22 H5          2.6378    0.6979    0.0000 HA        1 <0>         0.0000
     23 H6          1.1387    0.8555    0.0000 HA        1 <0>         0.0000
     24 H7          2.6378    3.1729    0.0000 HC        1 <0>         0.0000
     25 H8          2.6378    3.1729    0.0000 HC        1 <0>         0.0000
     26 H9          2.6378    3.1729    0.0000 HC        1 <0>         0.0000
     27 H10        -0.1712    1.5229    0.0000 HC        1 <0>         0.0000
     28 H11        -0.1712    1.5229    0.0000 HC        1 <0>         0.0000
     29 H12        -0.1712    1.5229    0.0000 HC        1 <0>         0.0000
@<TRIPOS>BOND
     1    1    2 1
     2    2    3 2
     3    3    4 1
     4    4    5 2
     5    4    6 1
     6    6    7 1
     7    7    8 ar
     8    2    8 1
     9    8    9 ar
    10    9   10 ar
    11   10   11 1
    12   11   12 2
    13   12   13 1
    14   13   14 1
    15   10   14 ar
    16   14   15 ar
    17    7   15 ar
    18   15   16 1
    19   12   17 1
    20    1   18 1
    21    1   19 1
    22    1   20 1
    23    3   21 1
    24    9   22 1
    25   11   23 1
    26   16   24 1
    27   16   25 1
    28   16   26 1
    29   17   27 1
    30   17   28 1
    31   17   29 1
@<TRIPOS>MOLECULE
*****
   45    48     0     0     0
SMALL
NO_CHARGES

@<TRIPOS>ATOM
      1 O1          7.5775    1.7429    0.0000 OH        1 <0>         0.0000
      2 O2          8.6275    0.2949    0.0000 OH        1 <0>         0.0000
      3 O3          2.0917   -1.8105    0.0000 OH        1 <0>         0.0000
      4 C1          6.5406    0.7074    0.0000 CT        1 <0>         0.0000
      5 C2          6.5406   -0.1176    0.0000 CT        1 <0>         0.0000
      6 C3          5.8262   -0.5300    0.0000 CT        1 <0>         0.0000
      7 C4          5.1119   -0.1176    0.0000 CT        1 <0>         0.0000
      8 C5          7.3211    0.9588    0.0000 CT        1 <0>         0.0000
      9 C6          5.8262    1.1199    0.0000 CT        1 <0>         0.0000
     10 C7          7.3211   -0.3689    0.0000 CT        1 <0>         0.0000
     11 C8          7.8026    0.2949    0.0000 CT        1 <0>         0.0000
     12 C9          5.1119    0.7074    0.0000 CT        1 <0>         0.0000
     13 C10         5.8395   -1.3891    0.0000 CT        1 <0>         0.0000
     14 C11         6.5406    1.5323    0.0000 CT        1 <0>         0.0000
     15 C12         4.3612   -0.5356    0.0000 CA        1 <0>         0.0000
     16 C13         5.0987   -1.8245    0.0000 CT        1 <0>         0.0000
     17 C14         4.3545   -1.3948    0.0000 CA        1 <0>         0.0000
     18 C15         3.5966   -0.0703    0.0000 CA        1 <0>         0.0000
     19 C16         3.5829   -1.8483    0.0000 CA        1 <0>         0.0000
     20 C17         2.8147   -0.5058    0.0000 CA        1 <0>         0.0000
     21 C18         2.8078   -1.4008    0.0000 CA        1 <0>         0.0000
     22 H1          6.6105   -0.7738    0.0000 HC        1 <0>         0.0000
     23 H2          6.4003   -0.8555    0.0000 HC        1 <0>         0.0000
     24 H3          5.6833    0.2124    0.0000 HC        1 <0>         0.0000
     25 H4          7.5775    1.7429    0.0000 HO        1 <0>         0.0000
     26 H5          8.6275    0.2949    0.0000 HO        1 <0>         0.0000
     27 H6          2.0917   -1.8105    0.0000 HO        1 <0>         0.0000
     28 H7          7.3211    0.9588    0.0000 H1        1 <0>         0.0000
     29 H8          5.8262    1.1199    0.0000 HC        1 <0>         0.0000
     30 H9          5.8262    1.1199    0.0000 HC        1 <0>         0.0000
     31 H10         7.3211   -0.3689    0.0000 HC        1 <0>         0.0000
     32 H11         7.3211   -0.3689    0.0000 HC        1 <0>         0.0000
     33 H12         7.8026    0.2949    0.0000 H1        1 <0>         0.0000
     34 H13         5.1119    0.7074    0.0000 HC        1 <0>         0.0000
     35 H14         5.1119    0.7074    0.0000 HC        1 <0>         0.0000
     36 H15         5.8395   -1.3891    0.0000 HC        1 <0>         0.0000
     37 H16         5.8395   -1.3891    0.0000 HC        1 <0>         0.0000
     38 H17         6.5406    1.5323    0.0000 HC        1 <0>         0.0000
     39 H18         6.5406    1.5323    0.0000 HC        1 <0>         0.0000
     40 H19         6.5406    1.5323    0.0000 HC        1 <0>         0.0000
     41 H20         5.0987   -1.8245    0.0000 HC        1 <0>         0.0000
     42 H21         5.0987   -1.8245    0.0000 HC        1 <0>         0.0000
     43 H22         3.5966   -0.0703    0.0000 HA        1 <0>         0.0000
     44 H23         3.5829   -1.8483    0.0000 HA        1 <0>         0.0000
     45 H24         2.8147   -0.5058    0.0000 HA        1 <0>         0.0000
@<TRIPOS>BOND
     1    1    8 1
     2    2   11 1
     3    3   21 1
     4    4    5 1
     5    4    8 1
     6    4    9 1
     7    4   14 1
     8    5    6 1
     9    5   10 1
    10    5   22 1
    11    6    7 1
    12    6   13 1
    13    6   23 1
    14    7   12 1
    15    7   15 1
    16    7   24 1
    17    8   11 1
    18    9   12 1
    19   10   11 1
    20   13   16 1
    21   15   17 ar
    22   15   18 ar
    23   16   17 1
    24   17   19 ar
    25   18   20 ar
    26   19   21 ar
    27   20   21 ar
    28    1   25 1
    29    2   26 1
    30    3   27 1
    31    8   28 1
    32    9   29 1
    33    9   30 1
    34   10   31 1
    35   10   32 1
    36   11   33 1
    37   12   34 1
    38   12   35 1
    39   13   36 1
    40   13   37 1
    41   14   38 1
    42   14   39 1
    43   14   40 1
    44   16   41 1
    45   16   42 1
    46   18   43 1
    47   19   44 1
    48   20   45 1
@<TRIPOS>MOLECULE
4575
   59    63     0     0     0
SMALL
NO_CHARGES

@<TRIPOS>ATOM
      1 O1          8.6440    1.5551    0.0000 OH        1 <0>         0.0000
      2 O2          3.6676   -1.9997    0.0000 OS        1 <0>         0.0000
      3 C1          8.1169    0.5186    0.0000 CT        1 <0>         0.0000
      4 C2          8.1169   -0.3064    0.0000 CT        1 <0>         0.0000
      5 C3          7.4024   -0.7189    0.0000 CT        1 <0>         0.0000
      6 C4          8.8976    0.7700    0.0000 CT        1 <0>         0.0000
      7 C5          6.6880   -0.3064    0.0000 CT        1 <0>         0.0000
      8 C6          7.4024    0.9311    0.0000 CT        1 <0>         0.0000
      9 C7          8.8976   -0.5579    0.0000 CT        1 <0>         0.0000
     10 C8          6.6880    0.5186    0.0000 CT        1 <0>         0.0000
     11 C9          9.3791    0.1061    0.0000 CT        1 <0>         0.0000
     12 C10         7.4157   -1.5783    0.0000 CT        1 <0>         0.0000
     13 C11         8.1169    1.3436    0.0000 CT        1 <0>         0.0000
     14 C12         5.9372   -0.7246    0.0000 CA        1 <0>         0.0000
     15 C13         6.6748   -2.0136    0.0000 CT        1 <0>         0.0000
     16 C14         5.9306   -1.5839    0.0000 CA        1 <0>         0.0000
     17 C15         9.5659    1.2538    0.0000 C2        1 <0>         0.0000
     18 C16         5.1726   -0.2592    0.0000 CA        1 <0>         0.0000
     19 C17         5.1588   -2.0375    0.0000 CA        1 <0>         0.0000
     20 C18         4.3906   -0.6948    0.0000 CA        1 <0>         0.0000
     21 C19         4.3836   -1.5899    0.0000 CA        1 <0>         0.0000
     22 C20        10.2341    1.7376    0.0000 C2        1 <0>         0.0000
     23 C21         2.9547   -1.5844    0.0000 CT        1 <0>         0.0000
     24 C22         2.8716   -0.7636    0.0000 CT        1 <0>         0.0000
     25 C23         2.1997   -1.9171    0.0000 CT        1 <0>         0.0000
     26 C24         2.0653   -0.5889    0.0000 CT        1 <0>         0.0000
     27 C25         1.6500   -1.3018    0.0000 CT        1 <0>         0.0000
     28 H1          8.1868   -0.9628    0.0000 HC        1 <0>         0.0000
     29 H2          7.9766   -1.0445    0.0000 HC        1 <0>         0.0000
     30 H3          7.2595    0.0236    0.0000 HC        1 <0>         0.0000
     31 H4          8.6440    1.5551    0.0000 HO        1 <0>         0.0000
     32 H5          7.4024    0.9311    0.0000 HC        1 <0>         0.0000
     33 H6          7.4024    0.9311    0.0000 HC        1 <0>         0.0000
     34 H7          8.8976   -0.5579    0.0000 HC        1 <0>         0.0000
     35 H8          8.8976   -0.5579    0.0000 HC        1 <0>         0.0000
     36 H9          6.6880    0.5186    0.0000 HC        1 <0>         0.0000
     37 H10         6.6880    0.5186    0.0000 HC        1 <0>         0.0000
     38 H11         9.3791    0.1061    0.0000 HC        1 <0>         0.0000
     39 H12         9.3791    0.1061    0.0000 HC        1 <0>         0.0000
     40 H13         7.4157   -1.5783    0.0000 HC        1 <0>         0.0000
     41 H14         7.4157   -1.5783    0.0000 HC        1 <0>         0.0000
     42 H15         8.1169    1.3436    0.0000 HC        1 <0>         0.0000
     43 H16         8.1169    1.3436    0.0000 HC        1 <0>         0.0000
     44 H17         8.1169    1.3436    0.0000 HC        1 <0>         0.0000
     45 H18         6.6748   -2.0136    0.0000 HC        1 <0>         0.0000
     46 H19         6.6748   -2.0136    0.0000 HC        1 <0>         0.0000
     47 H20         5.1726   -0.2592    0.0000 HA        1 <0>         0.0000
     48 H21         5.1588   -2.0375    0.0000 HA        1 <0>         0.0000
     49 H22         4.3906   -0.6948    0.0000 HA        1 <0>         0.0000
     50 H23        10.2341    1.7376    0.0000 HC        1 <0>         0.0000
     51 H24         2.9547   -1.5844    0.0000 H1        1 <0>         0.0000
     52 H25         2.8716   -0.7636    0.0000 HC        1 <0>         0.0000
     53 H26         2.8716   -0.7636    0.0000 HC        1 <0>         0.0000
     54 H27         2.1997   -1.9171    0.0000 HC        1 <0>         0.0000
     55 H28         2.1997   -1.9171    0.0000 HC        1 <0>         0.0000
     56 H29         2.0653   -0.5889    0.0000 HC        1 <0>         0.0000
     57 H30         2.0653   -0.5889    0.0000 HC        1 <0>         0.0000
     58 H31         1.6500   -1.3018    0.0000 HC        1 <0>         0.0000
     59 H32         1.6500   -1.3018    0.0000 HC        1 <0>         0.0000
@<TRIPOS>BOND
     1    1    6 1
     2    2   21 1
     3    2   23 1
     4    3    4 1
     5    3    6 1
     6    3    8 1
     7    3   13 1
     8    4    5 1
     9    4    9 1
    10    4   28 1
    11    5    7 1
    12    5   12 1
    13    5   29 1
    14    6   11 1
    15    6   17 1
    16    7   10 1
    17    7   14 1
    18    7   30 1
    19    8   10 1
    20    9   11 1
    21   12   15 1
    22   14   16 ar
    23   14   18 ar
    24   15   16 1
    25   16   19 ar
    26   17   22 3
    27   18   20 ar
    28   19   21 ar
    29   20   21 ar
    30   23   24 1
    31   23   25 1
    32   24   26 1
    33   25   27 1
    34   26   27 1
    35    1   31 1
    36    8   32 1
    37    8   33 1
    38    9   34 1
    39    9   35 1
    40   10   36 1
    41   10   37 1
    42   11   38 1
    43   11   39 1
    44   12   40 1
    45   12   41 1
    46   13   42 1
    47   13   43 1
    48   13   44 1
    49   15   45 1
    50   15   46 1
    51   18   47 1
    52   19   48 1
    53   20   49 1
    54   22   50 1
    55   23   51 1
    56   24   52 1
    57   24   53 1
    58   25   54 1
    59   25   55 1
    60   26   56 1
    61   26   57 1
    62   27   58 1
    63   27   59 1
@<TRIPOS>MOLECULE
*****
   18    17     0     0     0
SMALL
NO_CHARGES

@<TRIPOS>ATOM
      1 O1          3.9039    0.6039    0.0000 OH        1 <0>         0.0000
      2 C1          3.9039    1.4289    0.0000 CT        1 <0>         0.0000
      3 C2          3.1895    1.8414    0.0000 CT        1 <0>         0.0000
      4 C3          2.4750    1.4289    0.0000 C         1 <0>         0.0000
      5 O2          1.7605    1.8414    0.0000 OH        1 <0>         0.0000
      6 O3          2.4750    0.6039    0.0000 O         1 <0>         0.0000
      7 C4          4.6184    1.8414    0.0000 CT        1 <0>         0.0000
      8 C5          5.3329    1.4289    0.0000 C         1 <0>         0.0000
      9 O4          6.0474    1.8414    0.0000 OH        1 <0>         0.0000
     10 O5          5.3329    0.6039    0.0000 O         1 <0>         0.0000
     11 H1          3.9039    0.6039    0.0000 HO        1 <0>         0.0000
     12 H2          3.9039    1.4289    0.0000 H1        1 <0>         0.0000
     13 H3          3.1895    1.8414    0.0000 HC        1 <0>         0.0000
     14 H4          3.1895    1.8414    0.0000 HC        1 <0>         0.0000
     15 H5          1.7605    1.8414    0.0000 HO        1 <0>         0.0000
     16 H6          4.6184    1.8414    0.0000 HC        1 <0>         0.0000
     17 H7          4.6184    1.8414    0.0000 HC        1 <0>         0.0000
     18 H8          6.0474    1.8414    0.0000 HO        1 <0>         0.0000
@<TRIPOS>BOND
     1    1    2 1
     2    2    3 1
     3    3    4 1
     4    4    5 1
     5    4    6 2
     6    2    7 1
     7    7    8 1
     8    8    9 1
     9    8   10 2
    10    1   11 1
    11    2   12 1
    12    3   13 1
    13    3   14 1
    14    5   15 1
    15    7   16 1
    16    7   17 1
    17    9   18 1
@<TRIPOS>MOLECULE
*****
   51    53     0     0     0
SMALL
NO_CHARGES

@<TRIPOS>ATOM
      1 C1         -0.0980   -1.0942    0.0000 CT        1 <0>         0.0000
      2 C2          0.7145   -1.2375    0.0000 CT        1 <0>         0.0000
      3 O1          0.7145   -0.4125    0.0000 OS        1 <0>         0.0000
      4 C3          1.4289    0.0000    0.0000 CT        1 <0>         0.0000
      5 C4          2.1434   -0.4125    0.0000 CT        1 <0>         0.0000
      6 O2          2.8579    0.0000    0.0000 OS        1 <0>         0.0000
      7 C5          3.5724   -0.4125    0.0000 CT        1 <0>         0.0000
      8 O3          4.2868    0.0000    0.0000 OS        1 <0>         0.0000
      9 C6          4.2868    0.8250    0.0000 CT        1 <0>         0.0000
     10 C7          3.5724    1.2375    0.0000 CT        1 <0>         0.0000
     11 O4          2.8579    0.8250    0.0000 OH        1 <0>         0.0000
     12 C8          3.5724    2.0625    0.0000 CT        1 <0>         0.0000
     13 O5          2.8579    2.4750    0.0000 OH        1 <0>         0.0000
     14 C9          4.2868    2.4750    0.0000 CT        1 <0>         0.0000
     15 O6          4.2868    3.3000    0.0000 OH        1 <0>         0.0000
     16 O7          5.0013    2.0625    0.0000 OS        1 <0>         0.0000
     17 C10         5.0013    1.2375    0.0000 CT        1 <0>         0.0000
     18 C11         5.7158    0.8250    0.0000 C         1 <0>         0.0000
     19 O8          5.7158    0.0000    0.0000 OH        1 <0>         0.0000
     20 O9          6.4302    1.2375    0.0000 O         1 <0>         0.0000
     21 C12         3.5724   -1.2375    0.0000 CT        1 <0>         0.0000
     22 O10         4.2868   -1.6500    0.0000 OH        1 <0>         0.0000
     23 C13         2.8579   -1.6500    0.0000 CT        1 <0>         0.0000
     24 O11         2.8579   -2.4750    0.0000 OH        1 <0>         0.0000
     25 C14         2.1434   -1.2375    0.0000 CT        1 <0>         0.0000
     26 O12         1.4289   -1.6500    0.0000 OS        1 <0>         0.0000
     27 C15         0.4323   -2.0127    0.0000 C         1 <0>         0.0000
     28 O13         0.9626   -2.6447    0.0000 OH        1 <0>         0.0000
     29 O14        -0.3802   -2.1560    0.0000 O         1 <0>         0.0000
     30 H1         -0.0980   -1.0942    0.0000 HC        1 <0>         0.0000
     31 H2         -0.0980   -1.0942    0.0000 HC        1 <0>         0.0000
     32 H3         -0.0980   -1.0942    0.0000 HC        1 <0>         0.0000
     33 H4          1.4289    0.0000    0.0000 H1        1 <0>         0.0000
     34 H5          1.4289    0.0000    0.0000 H1        1 <0>         0.0000
     35 H6          2.1434   -0.4125    0.0000 H1        1 <0>         0.0000
     36 H7          3.5724   -0.4125    0.0000 H2        1 <0>         0.0000
     37 H8          4.2868    0.8250    0.0000 H1        1 <0>         0.0000
     38 H9          3.5724    1.2375    0.0000 H1        1 <0>         0.0000
     39 H10         2.8579    0.8250    0.0000 HO        1 <0>         0.0000
     40 H11         3.5724    2.0625    0.0000 H1        1 <0>         0.0000
     41 H12         2.8579    2.4750    0.0000 HO        1 <0>         0.0000
     42 H13         4.2868    2.4750    0.0000 H2        1 <0>         0.0000
     43 H14         4.2868    3.3000    0.0000 HO        1 <0>         0.0000
     44 H15         5.0013    1.2375    0.0000 H1        1 <0>         0.0000
     45 H16         5.7158    0.0000    0.0000 HO        1 <0>         0.0000
     46 H17         3.5724   -1.2375    0.0000 H1        1 <0>         0.0000
     47 H18         4.2868   -1.6500    0.0000 HO        1 <0>         0.0000
     48 H19         2.8579   -1.6500    0.0000 H1        1 <0>         0.0000
     49 H20         2.8579   -2.4750    0.0000 HO        1 <0>         0.0000
     50 H21         2.1434   -1.2375    0.0000 H1        1 <0>         0.0000
     51 H22         0.9626   -2.6447    0.0000 HO        1 <0>         0.0000
@<TRIPOS>BOND
     1    1    2 1
     2    2    3 1
     3    3    4 1
     4    4    5 1
     5    5    6 1
     6    6    7 1
     7    7    8 1
     8    8    9 1
     9    9   10 1
    10   10   11 1
    11   10   12 1
    12   12   13 1
    13   12   14 1
    14   14   15 1
    15   14   16 1
    16   16   17 1
    17    9   17 1
    18   17   18 1
    19   18   19 1
    20   18   20 2
    21    7   21 1
    22   21   22 1
    23   21   23 1
    24   23   24 1
    25   23   25 1
    26    5   25 1
    27   25   26 1
    28    2   26 1
    29    2   27 1
    30   27   28 1
    31   27   29 2
    32    1   30 1
    33    1   31 1
    34    1   32 1
    35    4   33 1
    36    4   34 1
    37    5   35 1
    38    7   36 1
    39    9   37 1
    40   10   38 1
    41   11   39 1
    42   12   40 1
    43   13   41 1
    44   14   42 1
    45   15   43 1
    46   17   44 1
    47   19   45 1
    48   21   46 1
    49   22   47 1
    50   23   48 1
    51   24   49 1
    52   25   50 1
    53   28   51 1
@<TRIPOS>MOLECULE
*****
   31    32     0     0     0
SMALL
NO_CHARGES

@<TRIPOS>ATOM
      1 C1          0.4323   -2.0127    0.0000 CT        1 <0>         0.0000
      2 C2          0.7145   -1.2375    0.0000 CT        1 <0>         0.0000
      3 O1          0.7145   -0.4125    0.0000 OS        1 <0>         0.0000
      4 C3          1.4289    0.0000    0.0000 CT        1 <0>         0.0000
      5 C4          2.1434   -0.4125    0.0000 CT        1 <0>         0.0000
      6 O2          2.8579    0.0000    0.0000 OS        1 <0>         0.0000
      7 C5          3.5724   -0.4125    0.0000 CT        1 <0>         0.0000
      8 O3          4.2868    0.0000    0.0000 OH        1 <0>         0.0000
      9 C6          3.5724   -1.2375    0.0000 CT        1 <0>         0.0000
     10 O4          4.2868   -1.6500    0.0000 OH        1 <0>         0.0000
     11 C7          2.8579   -1.6500    0.0000 CT        1 <0>         0.0000
     12 O5          2.8579   -2.4750    0.0000 OH        1 <0>         0.0000
     13 C8          2.1434   -1.2375    0.0000 CT        1 <0>         0.0000
     14 O6          1.4289   -1.6500    0.0000 OS        1 <0>         0.0000
     15 C9         -0.0980   -1.0942    0.0000 C         1 <0>         0.0000
     16 O7         -0.6283   -1.7262    0.0000 OH        1 <0>         0.0000
     17 O8         -0.3802   -0.3190    0.0000 O         1 <0>         0.0000
     18 H1          0.4323   -2.0127    0.0000 HC        1 <0>         0.0000
     19 H2          0.4323   -2.0127    0.0000 HC        1 <0>         0.0000
     20 H3          0.4323   -2.0127    0.0000 HC        1 <0>         0.0000
     21 H4          1.4289    0.0000    0.0000 H1        1 <0>         0.0000
     22 H5          1.4289    0.0000    0.0000 H1        1 <0>         0.0000
     23 H6          2.1434   -0.4125    0.0000 H1        1 <0>         0.0000
     24 H7          3.5724   -0.4125    0.0000 H2        1 <0>         0.0000
     25 H8          4.2868    0.0000    0.0000 HO        1 <0>         0.0000
     26 H9          3.5724   -1.2375    0.0000 H1        1 <0>         0.0000
     27 H10         4.2868   -1.6500    0.0000 HO        1 <0>         0.0000
     28 H11         2.8579   -1.6500    0.0000 H1        1 <0>         0.0000
     29 H12         2.8579   -2.4750    0.0000 HO        1 <0>         0.0000
     30 H13         2.1434   -1.2375    0.0000 H1        1 <0>         0.0000
     31 H14        -0.6283   -1.7262    0.0000 HO        1 <0>         0.0000
@<TRIPOS>BOND
     1    1    2 1
     2    2    3 1
     3    3    4 1
     4    4    5 1
     5    5    6 1
     6    6    7 1
     7    7    8 1
     8    7    9 1
     9    9   10 1
    10    9   11 1
    11   11   12 1
    12   11   13 1
    13    5   13 1
    14   13   14 1
    15    2   14 1
    16    2   15 1
    17   15   16 1
    18   15   17 2
    19    1   18 1
    20    1   19 1
    21    1   20 1
    22    4   21 1
    23    4   22 1
    24    5   23 1
    25    7   24 1
    26    8   25 1
    27    9   26 1
    28   10   27 1
    29   11   28 1
    30   12   29 1
    31   13   30 1
    32   16   31 1
@<TRIPOS>MOLECULE
*****
   17    17     0     0     0
SMALL
NO_CHARGES

@<TRIPOS>ATOM
      1 C1          0.0000    2.4750    0.0000 CT        1 <0>         0.0000
      2 C2          0.7145    2.0625    0.0000 C         1 <0>         0.0000
      3 O1          1.4289    2.4750    0.0000 O         1 <0>         0.0000
      4 C3          0.7145    1.2375    0.0000 CA        1 <0>         0.0000
      5 C4          1.4289    0.8250    0.0000 CA        1 <0>         0.0000
      6 C5          1.4289    0.0000    0.0000 CA        1 <0>         0.0000
      7 C6          0.7145   -0.4125    0.0000 CA        1 <0>         0.0000
      8 C7          0.0000    0.0000    0.0000 CA        1 <0>         0.0000
      9 C8          0.0000    0.8250    0.0000 CA        1 <0>         0.0000
     10 H1          0.0000    2.4750    0.0000 HC        1 <0>         0.0000
     11 H2          0.0000    2.4750    0.0000 HC        1 <0>         0.0000
     12 H3          0.0000    2.4750    0.0000 HC        1 <0>         0.0000
     13 H4          1.4289    0.8250    0.0000 HA        1 <0>         0.0000
     14 H5          1.4289    0.0000    0.0000 HA        1 <0>         0.0000
     15 H6          0.7145   -0.4125    0.0000 HA        1 <0>         0.0000
     16 H7          0.0000    0.0000    0.0000 HA        1 <0>         0.0000
     17 H8          0.0000    0.8250    0.0000 HA        1 <0>         0.0000
@<TRIPOS>BOND
     1    1    2 1
     2    2    3 2
     3    2    4 1
     4    4    5 ar
     5    5    6 ar
     6    6    7 ar
     7    7    8 ar
     8    8    9 ar
     9    4    9 ar
    10    1   10 1
    11    1   11 1
    12    1   12 1
    13    5   13 1
    14    6   14 1
    15    7   15 1
    16    8   16 1
    17    9   17 1
@<TRIPOS>MOLECULE
AKV
   52    54     0     0     0
SMALL
NO_CHARGES

@<TRIPOS>ATOM
      1 O1          0.6533   -1.8238    0.0000 O         1 <0>         0.0000
      2 C1         -0.0612   -1.4113    0.0000 C         1 <0>         0.0000
      3 C2         -0.0612   -0.5863    0.0000 CB        1 <0>         0.0000
      4 C3          0.6533   -0.1738    0.0000 CA        1 <0>         0.0000
      5 O2          1.3678   -0.5863    0.0000 OH        1 <0>         0.0000
      6 C4         -0.7756   -1.8238    0.0000 CB        1 <0>         0.0000
      7 C5         -0.7756   -2.6488    0.0000 CA        1 <0>         0.0000
      8 O3         -0.0612   -3.0613    0.0000 OH        1 <0>         0.0000
      9 C6         -1.4901   -3.0613    0.0000 CA        1 <0>         0.0000
     10 C7         -2.2046   -2.6488    0.0000 CA        1 <0>         0.0000
     11 C8         -2.2046   -1.8238    0.0000 CA        1 <0>         0.0000
     12 C9         -1.4901   -1.4113    0.0000 CB        1 <0>         0.0000
     13 C10        -1.4901   -0.5863    0.0000 C         1 <0>         0.0000
     14 O4         -2.2046   -0.1738    0.0000 O         1 <0>         0.0000
     15 C11        -0.7756   -0.1738    0.0000 CB        1 <0>         0.0000
     16 C12        -0.7756    0.6512    0.0000 CA        1 <0>         0.0000
     17 C13        -0.0612    1.0637    0.0000 CA        1 <0>         0.0000
     18 C14        -0.0612    1.8887    0.0000 CT        1 <0>         0.0000
     19 C15        -0.7756    2.3012    0.0000 C         1 <0>         0.0000
     20 O5         -1.4901    1.8887    0.0000 OS        1 <0>         0.0000
     21 C16        -2.2046    2.3012    0.0000 CT        1 <0>         0.0000
     22 O6         -0.7756    3.1262    0.0000 O         1 <0>         0.0000
     23 C17         0.6533    0.6512    0.0000 CA        1 <0>         0.0000
     24 C18         1.3678    1.0637    0.0000 CT        1 <0>         0.0000
     25 O7          1.3678    1.8887    0.0000 OH        1 <0>         0.0000
     26 C19         2.0823    0.6512    0.0000 CT        1 <0>         0.0000
     27 C20         2.7967    1.0637    0.0000 CT        1 <0>         0.0000
     28 O8          2.7967    1.8887    0.0000 OH        1 <0>         0.0000
     29 C21         3.5112    0.6512    0.0000 CT        1 <0>         0.0000
     30 C22         3.5112   -0.1738    0.0000 CT        1 <0>         0.0000
     31 H1          0.8621    1.3557    0.0000 H1        1 <0>         0.0000
     32 H2          2.2910    1.3557    0.0000 H1        1 <0>         0.0000
     33 H3          1.3678   -0.5863    0.0000 HO        1 <0>         0.0000
     34 H4         -0.0612   -3.0613    0.0000 HO        1 <0>         0.0000
     35 H5         -1.4901   -3.0613    0.0000 HA        1 <0>         0.0000
     36 H6         -2.2046   -2.6488    0.0000 HA        1 <0>         0.0000
     37 H7         -2.2046   -1.8238    0.0000 HA        1 <0>         0.0000
     38 H8         -0.7756    0.6512    0.0000 HA        1 <0>         0.0000
     39 H9         -0.0612    1.8887    0.0000 HC        1 <0>         0.0000
     40 H10        -0.0612    1.8887    0.0000 HC        1 <0>         0.0000
     41 H11        -2.2046    2.3012    0.0000 H1        1 <0>         0.0000
     42 H12        -2.2046    2.3012    0.0000 H1        1 <0>         0.0000
     43 H13        -2.2046    2.3012    0.0000 H1        1 <0>         0.0000
     44 H14         1.3678    1.8887    0.0000 HO        1 <0>         0.0000
     45 H15         2.0823    0.6512    0.0000 HC        1 <0>         0.0000
     46 H16         2.0823    0.6512    0.0000 HC        1 <0>         0.0000
     47 H17         2.7967    1.8887    0.0000 HO        1 <0>         0.0000
     48 H18         3.5112    0.6512    0.0000 HC        1 <0>         0.0000
     49 H19         3.5112    0.6512    0.0000 HC        1 <0>         0.0000
     50 H20         3.5112   -0.1738    0.0000 HC        1 <0>         0.0000
     51 H21         3.5112   -0.1738    0.0000 HC        1 <0>         0.0000
     52 H22         3.5112   -0.1738    0.0000 HC        1 <0>         0.0000
@<TRIPOS>BOND
     1    1    2 2
     2    2    3 1
     3    2    6 1
     4    3    4 ar
     5    3   15 ar
     6    4    5 1
     7    4   23 ar
     8    6    7 ar
     9    6   12 ar
    10    7    8 1
    11    7    9 ar
    12    9   10 ar
    13   10   11 ar
    14   11   12 ar
    15   12   13 1
    16   13   14 2
    17   13   15 1
    18   15   16 ar
    19   16   17 ar
    20   17   18 1
    21   17   23 ar
    22   18   19 1
    23   19   20 1
    24   19   22 2
    25   20   21 1
    26   23   24 1
    27   24   25 1
    28   24   26 1
    29   24   31 1
    30   26   27 1
    31   27   28 1
    32   27   29 1
    33   27   32 1
    34   29   30 1
    35    5   33 1
    36    8   34 1
    37    9   35 1
    38   10   36 1
    39   11   37 1
    40   16   38 1
    41   18   39 1
    42   18   40 1
    43   21   41 1
    44   21   42 1
    45   21   43 1
    46   25   44 1
    47   26   45 1
    48   26   46 1
    49   28   47 1
    50   29   48 1
    51   29   49 1
    52   30   50 1
    53   30   51 1
    54   30   52 1
@<TRIPOS>MOLECULE
AS4
   54    57     0     0     0
SMALL
NO_CHARGES

@<TRIPOS>ATOM
      1 C1         -0.7594   -0.6359    0.0000 CT        1 <0>         0.0000
      2 C2         -0.5079    0.7707    0.0000 CT        1 <0>         0.0000
      3 C3         -1.3995    0.8824    0.0000 C         1 <0>         0.0000
      4 C4          1.3967   -0.2957    0.0000 CT        1 <0>         0.0000
      5 C5          1.6770   -1.0716    0.0000 CM        1 <0>         0.0000
      6 C6          2.4891   -1.2168    0.0000 CM        1 <0>         0.0000
      7 C7          3.0209   -0.5861    0.0000 C         1 <0>         0.0000
      8 C8          1.1164    0.4803    0.0000 CT        1 <0>         0.0000
      9 C9         -2.0935   -0.6793    0.0000 CT        1 <0>         0.0000
     10 C10        -1.8642    0.1132    0.0000 CT        1 <0>         0.0000
     11 C11        -2.3706    0.7645    0.0000 C         1 <0>         0.0000
     12 C12        -2.0597    1.5287    0.0000 CT        1 <0>         0.0000
     13 C13        -1.4107   -1.1423    0.0000 CT        1 <0>         0.0000
     14 C14        -1.0397    0.1400    0.0000 CT        1 <0>         0.0000
     15 C15         0.0527   -0.7811    0.0000 CT        1 <0>         0.0000
     16 C16         0.5846   -0.1504    0.0000 CT        1 <0>         0.0000
     17 C17         0.3043    0.6255    0.0000 CT        1 <0>         0.0000
     18 O1          0.8361    1.2562    0.0000 OH        1 <0>         0.0000
     19 O2         -0.9366    1.5652    0.0000 O         1 <0>         0.0000
     20 O3          3.8330   -0.7313    0.0000 O         1 <0>         0.0000
     21 C18         2.7406    0.1898    0.0000 CT        1 <0>         0.0000
     22 C19         1.9285    0.3351    0.0000 CT        1 <0>         0.0000
     23 C20         1.1452   -1.7023    0.0000 CT        1 <0>         0.0000
     24 C21         0.3330   -1.5571    0.0000 CT        1 <0>         0.0000
     25 O4         -3.1878    0.6517    0.0000 O         1 <0>         0.0000
     26 O5         -2.5661    2.1800    0.0000 OH        1 <0>         0.0000
     27 H1         -0.6195   -1.2029    0.0000 HC        1 <0>         0.0000
     28 H2         -2.4377    0.0031    0.0000 HC        1 <0>         0.0000
     29 H3         -0.3237   -1.2276    0.0000 HC        1 <0>         0.0000
     30 H4          0.5860    0.4335    0.0000 HC        1 <0>         0.0000
     31 H5          0.1059    1.1747    0.0000 H1        1 <0>         0.0000
     32 H6         -0.5079    0.7707    0.0000 HC        1 <0>         0.0000
     33 H7         -0.5079    0.7707    0.0000 HC        1 <0>         0.0000
     34 H8         -1.3995    0.8824    0.0000 H4        1 <0>         0.0000
     35 H9          2.4891   -1.2168    0.0000 HA        1 <0>         0.0000
     36 H10         1.1164    0.4803    0.0000 HC        1 <0>         0.0000
     37 H11         1.1164    0.4803    0.0000 HC        1 <0>         0.0000
     38 H12         1.1164    0.4803    0.0000 HC        1 <0>         0.0000
     39 H13        -2.0935   -0.6793    0.0000 HC        1 <0>         0.0000
     40 H14        -2.0935   -0.6793    0.0000 HC        1 <0>         0.0000
     41 H15        -2.0597    1.5287    0.0000 H1        1 <0>         0.0000
     42 H16        -2.0597    1.5287    0.0000 H1        1 <0>         0.0000
     43 H17        -1.4107   -1.1423    0.0000 HC        1 <0>         0.0000
     44 H18        -1.4107   -1.1423    0.0000 HC        1 <0>         0.0000
     45 H19         0.8361    1.2562    0.0000 HO        1 <0>         0.0000
     46 H20         2.7406    0.1898    0.0000 HC        1 <0>         0.0000
     47 H21         2.7406    0.1898    0.0000 HC        1 <0>         0.0000
     48 H22         1.9285    0.3351    0.0000 HC        1 <0>         0.0000
     49 H23         1.9285    0.3351    0.0000 HC        1 <0>         0.0000
     50 H24         1.1452   -1.7023    0.0000 HC        1 <0>         0.0000
     51 H25         1.1452   -1.7023    0.0000 HC        1 <0>         0.0000
     52 H26         0.3330   -1.5571    0.0000 HC        1 <0>         0.0000
     53 H27         0.3330   -1.5571    0.0000 HC        1 <0>         0.0000
     54 H28        -2.5661    2.1800    0.0000 HO        1 <0>         0.0000
@<TRIPOS>BOND
     1    1   13 1
     2    1   14 1
     3    1   15 1
     4    1   27 1
     5    2   14 1
     6    2   17 1
     7    3   14 1
     8    3   19 2
     9    4    5 1
    10    4    8 1
    11    4   16 1
    12    4   22 1
    13    5    6 2
    14    5   23 1
    15    6    7 1
    16    7   20 2
    17    7   21 1
    18    9   10 1
    19    9   13 1
    20   10   11 1
    21   10   14 1
    22   10   28 1
    23   11   12 1
    24   11   25 2
    25   12   26 1
    26   15   16 1
    27   15   24 1
    28   15   29 1
    29   16   17 1
    30   16   30 1
    31   17   18 1
    32   17   31 1
    33   21   22 1
    34   23   24 1
    35    2   32 1
    36    2   33 1
    37    3   34 1
    38    6   35 1
    39    8   36 1
    40    8   37 1
    41    8   38 1
    42    9   39 1
    43    9   40 1
    44   12   41 1
    45   12   42 1
    46   13   43 1
    47   13   44 1
    48   18   45 1
    49   21   46 1
    50   21   47 1
    51   22   48 1
    52   22   49 1
    53   23   50 1
    54   23   51 1
    55   24   52 1
    56   24   53 1
    57   26   54 1
@<TRIPOS>MOLECULE
BHQ
   38    38     0     0     0
SMALL
NO_CHARGES

@<TRIPOS>ATOM
      1 O1          1.4289    0.8249    0.0000 OH        1 <0>         0.0000
      2 O2         -1.4290   -0.8251    0.0000 OH        1 <0>         0.0000
      3 C1          0.7145    0.4124    0.0000 CA        1 <0>         0.0000
      4 C2          0.7145   -0.4126    0.0000 CA        1 <0>         0.0000
      5 C3          0.0000   -0.8251    0.0000 CA        1 <0>         0.0000
      6 C4         -0.7145   -0.4126    0.0000 CA        1 <0>         0.0000
      7 C5         -0.7145    0.4124    0.0000 CA        1 <0>         0.0000
      8 C6          0.0000    0.8249    0.0000 CA        1 <0>         0.0000
      9 C7          1.4289   -0.8251    0.0000 CT        1 <0>         0.0000
     10 C8          2.1434   -1.2376    0.0000 CT        1 <0>         0.0000
     11 C9          1.8414   -0.1106    0.0000 CT        1 <0>         0.0000
     12 C10         1.0164   -1.5395    0.0000 CT        1 <0>         0.0000
     13 C11        -1.4290    0.8249    0.0000 CT        1 <0>         0.0000
     14 C12        -2.1434    1.2374    0.0000 CT        1 <0>         0.0000
     15 C13        -1.0165    1.5394    0.0000 CT        1 <0>         0.0000
     16 C14        -1.8415    0.1105    0.0000 CT        1 <0>         0.0000
     17 H1          1.4289    0.8249    0.0000 HO        1 <0>         0.0000
     18 H2         -1.4290   -0.8251    0.0000 HO        1 <0>         0.0000
     19 H3          0.0000   -0.8251    0.0000 HA        1 <0>         0.0000
     20 H4          0.0000    0.8249    0.0000 HA        1 <0>         0.0000
     21 H5          2.1434   -1.2376    0.0000 HC        1 <0>         0.0000
     22 H6          2.1434   -1.2376    0.0000 HC        1 <0>         0.0000
     23 H7          2.1434   -1.2376    0.0000 HC        1 <0>         0.0000
     24 H8          1.8414   -0.1106    0.0000 HC        1 <0>         0.0000
     25 H9          1.8414   -0.1106    0.0000 HC        1 <0>         0.0000
     26 H10         1.8414   -0.1106    0.0000 HC        1 <0>         0.0000
     27 H11         1.0164   -1.5395    0.0000 HC        1 <0>         0.0000
     28 H12         1.0164   -1.5395    0.0000 HC        1 <0>         0.0000
     29 H13         1.0164   -1.5395    0.0000 HC        1 <0>         0.0000
     30 H14        -2.1434    1.2374    0.0000 HC        1 <0>         0.0000
     31 H15        -2.1434    1.2374    0.0000 HC        1 <0>         0.0000
     32 H16        -2.1434    1.2374    0.0000 HC        1 <0>         0.0000
     33 H17        -1.0165    1.5394    0.0000 HC        1 <0>         0.0000
     34 H18        -1.0165    1.5394    0.0000 HC        1 <0>         0.0000
     35 H19        -1.0165    1.5394    0.0000 HC        1 <0>         0.0000
     36 H20        -1.8415    0.1105    0.0000 HC        1 <0>         0.0000
     37 H21        -1.8415    0.1105    0.0000 HC        1 <0>         0.0000
     38 H22        -1.8415    0.1105    0.0000 HC        1 <0>         0.0000
@<TRIPOS>BOND
     1    1    3 1
     2    2    6 1
     3    3    4 ar
     4    3    8 ar
     5    4    5 ar
     6    4    9 1
     7    5    6 ar
     8    6    7 ar
     9    7    8 ar
    10    7   13 1
    11    9   10 1
    12    9   11 1
    13    9   12 1
    14   13   14 1
    15   13   15 1
    16   13   16 1
    17    1   17 1
    18    2   18 1
    19    5   19 1
    20    8   20 1
    21   10   21 1
    22   10   22 1
    23   10   23 1
    24   11   24 1
    25   11   25 1
    26   11   26 1
    27   12   27 1
    28   12   28 1
    29   12   29 1
    30   14   30 1
    31   14   31 1
    32   14   32 1
    33   15   33 1
    34   15   34 1
    35   15   35 1
    36   16   36 1
    37   16   37 1
    38   16   38 1
@<TRIPOS>MOLECULE
*****
   23    24     0     0     0
SMALL
NO_CHARGES

@<TRIPOS>ATOM
      1 O1          0.0000   -2.4750    0.0000 OH        1 <0>         0.0000
      2 C1          0.0000   -1.6500    0.0000 C         1 <0>         0.0000
      3 O2         -0.7145   -1.2375    0.0000 O         1 <0>         0.0000
      4 C2          0.7145   -1.2375    0.0000 CA        1 <0>         0.0000
      5 C3          0.7145   -0.4125    0.0000 CA        1 <0>         0.0000
      6 O3          0.0000    0.0000    0.0000 OH        1 <0>         0.0000
      7 C4          1.4289    0.0000    0.0000 CA        1 <0>         0.0000
      8 C5          2.1434   -0.4125    0.0000 CB        1 <0>         0.0000
      9 C6          2.8579    0.0000    0.0000 CA        1 <0>         0.0000
     10 C7          3.5724   -0.4125    0.0000 CA        1 <0>         0.0000
     11 C8          3.5724   -1.2375    0.0000 CA        1 <0>         0.0000
     12 O4          4.2868   -1.6500    0.0000 OH        1 <0>         0.0000
     13 C9          2.8579   -1.6500    0.0000 CA        1 <0>         0.0000
     14 C10         2.1434   -1.2375    0.0000 CB        1 <0>         0.0000
     15 C11         1.4289   -1.6500    0.0000 CA        1 <0>         0.0000
     16 H1          0.0000   -2.4750    0.0000 HO        1 <0>         0.0000
     17 H2          0.0000    0.0000    0.0000 HO        1 <0>         0.0000
     18 H3          1.4289    0.0000    0.0000 HA        1 <0>         0.0000
     19 H4          2.8579    0.0000    0.0000 HA        1 <0>         0.0000
     20 H5          3.5724   -0.4125    0.0000 HA        1 <0>         0.0000
     21 H6          4.2868   -1.6500    0.0000 HO        1 <0>         0.0000
     22 H7          2.8579   -1.6500    0.0000 HA        1 <0>         0.0000
     23 H8          1.4289   -1.6500    0.0000 HA        1 <0>         0.0000
@<TRIPOS>BOND
     1    1    2 1
     2    2    3 2
     3    2    4 1
     4    4    5 ar
     5    5    6 1
     6    5    7 ar
     7    7    8 ar
     8    8    9 ar
     9    9   10 ar
    10   10   11 ar
    11   11   12 1
    12   11   13 ar
    13   13   14 ar
    14    8   14 ar
    15   14   15 ar
    16    4   15 ar
    17    1   16 1
    18    6   17 1
    19    7   18 1
    20    9   19 1
    21   10   20 1
    22   12   21 1
    23   13   22 1
    24   15   23 1
@<TRIPOS>MOLECULE
C0R
   55    58     0     0     0
SMALL
NO_CHARGES

@<TRIPOS>ATOM
      1 C1          1.9763   -0.4677    0.0000 CT        1 <0>         0.0000
      2 C2          2.7884   -0.3225    0.0000 CT        1 <0>         0.0000
      3 C3          3.0687    0.4535    0.0000 C         1 <0>         0.0000
      4 C4          2.5369    1.0842    0.0000 CM        1 <0>         0.0000
      5 C5          1.7248    0.9390    0.0000 CM        1 <0>         0.0000
      6 C6          1.1930    1.5697    0.0000 CT        1 <0>         0.0000
      7 C7          0.3808    1.4244    0.0000 CT        1 <0>         0.0000
      8 C8          0.1005    0.6485    0.0000 CT        1 <0>         0.0000
      9 C9          0.6324    0.0178    0.0000 CT        1 <0>         0.0000
     10 C10         1.4445    0.1630    0.0000 CT        1 <0>         0.0000
     11 C11         0.3521   -0.7581    0.0000 CT        1 <0>         0.0000
     12 C12        -0.4601   -0.9033    0.0000 CT        1 <0>         0.0000
     13 C13        -0.9919   -0.2726    0.0000 CT        1 <0>         0.0000
     14 C14        -0.7116    0.5033    0.0000 CT        1 <0>         0.0000
     15 C15        -1.3629    1.0097    0.0000 CT        1 <0>         0.0000
     16 C16        -2.0457    0.5467    0.0000 CT        1 <0>         0.0000
     17 C17        -1.8164   -0.2458    0.0000 CT        1 <0>         0.0000
     18 C18        -1.3517   -1.0150    0.0000 CT        1 <0>         0.0000
     19 C19         1.1642   -0.6129    0.0000 CT        1 <0>         0.0000
     20 C20        -2.3228   -0.8971    0.0000 C         1 <0>         0.0000
     21 C21        -3.1400   -0.7843    0.0000 CT        1 <0>         0.0000
     22 O1          3.8808    0.5987    0.0000 O         1 <0>         0.0000
     23 O2          0.8839   -1.3888    0.0000 OH        1 <0>         0.0000
     24 O3         -2.0119   -1.6613    0.0000 O         1 <0>         0.0000
     25 O4         -3.6464   -1.4356    0.0000 OH        1 <0>         0.0000
     26 H1         -0.2759    1.0949    0.0000 HC        1 <0>         0.0000
     27 H2          1.1388   -0.2729    0.0000 HC        1 <0>         0.0000
     28 H3          0.9274   -0.8581    0.0000 H1        1 <0>         0.0000
     29 H4         -0.5717    1.0702    0.0000 HC        1 <0>         0.0000
     30 H5         -1.5684   -0.7744    0.0000 HC        1 <0>         0.0000
     31 H6          1.9763   -0.4677    0.0000 HC        1 <0>         0.0000
     32 H7          1.9763   -0.4677    0.0000 HC        1 <0>         0.0000
     33 H8          2.7884   -0.3225    0.0000 HC        1 <0>         0.0000
     34 H9          2.7884   -0.3225    0.0000 HC        1 <0>         0.0000
     35 H10         2.5369    1.0842    0.0000 HA        1 <0>         0.0000
     36 H11         1.1930    1.5697    0.0000 HC        1 <0>         0.0000
     37 H12         1.1930    1.5697    0.0000 HC        1 <0>         0.0000
     38 H13         0.3808    1.4244    0.0000 HC        1 <0>         0.0000
     39 H14         0.3808    1.4244    0.0000 HC        1 <0>         0.0000
     40 H15        -0.4601   -0.9033    0.0000 HC        1 <0>         0.0000
     41 H16        -0.4601   -0.9033    0.0000 HC        1 <0>         0.0000
     42 H17        -1.3629    1.0097    0.0000 HC        1 <0>         0.0000
     43 H18        -1.3629    1.0097    0.0000 HC        1 <0>         0.0000
     44 H19        -2.0457    0.5467    0.0000 HC        1 <0>         0.0000
     45 H20        -2.0457    0.5467    0.0000 HC        1 <0>         0.0000
     46 H21        -1.3517   -1.0150    0.0000 HC        1 <0>         0.0000
     47 H22        -1.3517   -1.0150    0.0000 HC        1 <0>         0.0000
     48 H23        -1.3517   -1.0150    0.0000 HC        1 <0>         0.0000
     49 H24         1.1642   -0.6129    0.0000 HC        1 <0>         0.0000
     50 H25         1.1642   -0.6129    0.0000 HC        1 <0>         0.0000
     51 H26         1.1642   -0.6129    0.0000 HC        1 <0>         0.0000
     52 H27        -3.1400   -0.7843    0.0000 H1        1 <0>         0.0000
     53 H28        -3.1400   -0.7843    0.0000 H1        1 <0>         0.0000
     54 H29         0.8839   -1.3888    0.0000 HO        1 <0>         0.0000
     55 H30        -3.6464   -1.4356    0.0000 HO        1 <0>         0.0000
@<TRIPOS>BOND
     1    1    2 1
     2    1   10 1
     3    2    3 1
     4    3    4 1
     5    3   22 2
     6    4    5 2
     7    5    6 1
     8    5   10 1
     9    6    7 1
    10    7    8 1
    11    8    9 1
    12    8   14 1
    13    8   26 1
    14    9   10 1
    15    9   11 1
    16    9   27 1
    17   10   19 1
    18   11   12 1
    19   11   23 1
    20   11   28 1
    21   12   13 1
    22   13   14 1
    23   13   17 1
    24   13   18 1
    25   14   15 1
    26   14   29 1
    27   15   16 1
    28   16   17 1
    29   17   20 1
    30   17   30 1
    31   20   21 1
    32   20   24 2
    33   21   25 1
    34    1   31 1
    35    1   32 1
    36    2   33 1
    37    2   34 1
    38    4   35 1
    39    6   36 1
    40    6   37 1
    41    7   38 1
    42    7   39 1
    43   12   40 1
    44   12   41 1
    45   15   42 1
    46   15   43 1
    47   16   44 1
    48   16   45 1
    49   18   46 1
    50   18   47 1
    51   18   48 1
    52   19   49 1
    53   19   50 1
    54   19   51 1
    55   21   52 1
    56   21   53 1
    57   23   54 1
    58   25   55 1
@<TRIPOS>MOLECULE
CA2
   44    45     0     0     0
SMALL
NO_CHARGES

@<TRIPOS>ATOM
      1 O1         -2.8760   -0.0339    0.0000 O         1 <0>         0.0000
      2 C1         -2.5938   -0.8092    0.0000 C         1 <0>         0.0000
      3 O2         -3.1241   -1.4412    0.0000 OH        1 <0>         0.0000
      4 C2         -1.7814   -0.9524    0.0000 CT        1 <0>         0.0000
      5 O3         -2.0635   -1.7277    0.0000 OH        1 <0>         0.0000
      6 C3         -1.7814   -0.1274    0.0000 CT        1 <0>         0.0000
      7 C4         -1.0669    0.2851    0.0000 CT        1 <0>         0.0000
      8 C5         -0.3524   -0.1274    0.0000 CT        1 <0>         0.0000
      9 O4          0.3620    0.2851    0.0000 OH        1 <0>         0.0000
     10 C6         -0.3524   -0.9524    0.0000 CT        1 <0>         0.0000
     11 O5          0.3620   -1.3649    0.0000 OH        1 <0>         0.0000
     12 C7         -1.0669   -1.3649    0.0000 CT        1 <0>         0.0000
     13 C8         -1.0669    1.1101    0.0000 CT        1 <0>         0.0000
     14 C9         -0.3524    1.5226    0.0000 CT        1 <0>         0.0000
     15 C10         0.3620    1.1101    0.0000 CT        1 <0>         0.0000
     16 O6          1.0765    1.5226    0.0000 OS        1 <0>         0.0000
     17 C11         1.7910    1.1101    0.0000 CA        1 <0>         0.0000
     18 C12         2.5054    1.5226    0.0000 CA        1 <0>         0.0000
     19 C13         3.2199    1.1101    0.0000 CA        1 <0>         0.0000
     20 C14         3.2199    0.2851    0.0000 CA        1 <0>         0.0000
     21 C15         2.5054   -0.1274    0.0000 CA        1 <0>         0.0000
     22 C16         1.7910    0.2851    0.0000 CA        1 <0>         0.0000
     23 H1         -1.5726    0.5770    0.0000 HC        1 <0>         0.0000
     24 H2         -0.3524    0.4565    0.0000 H1        1 <0>         0.0000
     25 H3          0.1533   -0.6605    0.0000 H1        1 <0>         0.0000
     26 H4         -3.1241   -1.4412    0.0000 HO        1 <0>         0.0000
     27 H5         -2.0635   -1.7277    0.0000 HO        1 <0>         0.0000
     28 H6         -1.7814   -0.1274    0.0000 HC        1 <0>         0.0000
     29 H7         -1.7814   -0.1274    0.0000 HC        1 <0>         0.0000
     30 H8          0.3620    0.2851    0.0000 HO        1 <0>         0.0000
     31 H9          0.3620   -1.3649    0.0000 HO        1 <0>         0.0000
     32 H10        -1.0669   -1.3649    0.0000 HC        1 <0>         0.0000
     33 H11        -1.0669   -1.3649    0.0000 HC        1 <0>         0.0000
     34 H12        -1.0669    1.1101    0.0000 HC        1 <0>         0.0000
     35 H13        -1.0669    1.1101    0.0000 HC        1 <0>         0.0000
     36 H14        -0.3524    1.5226    0.0000 HC        1 <0>         0.0000
     37 H15        -0.3524    1.5226    0.0000 HC        1 <0>         0.0000
     38 H16         0.3620    1.1101    0.0000 H1        1 <0>         0.0000
     39 H17         0.3620    1.1101    0.0000 H1        1 <0>         0.0000
     40 H18         2.5054    1.5226    0.0000 HA        1 <0>         0.0000
     41 H19         3.2199    1.1101    0.0000 HA        1 <0>         0.0000
     42 H20         3.2199    0.2851    0.0000 HA        1 <0>         0.0000
     43 H21         2.5054   -0.1274    0.0000 HA        1 <0>         0.0000
     44 H22         1.7910    0.2851    0.0000 HA        1 <0>         0.0000
@<TRIPOS>BOND
     1    1    2 2
     2    2    3 1
     3    2    4 1
     4    4    5 1
     5    4    6 1
     6    4   12 1
     7    6    7 1
     8    7    8 1
     9    7   13 1
    10    7   23 1
    11    8    9 1
    12    8   10 1
    13    8   24 1
    14   10   11 1
    15   10   12 1
    16   10   25 1
    17   13   14 1
    18   14   15 1
    19   15   16 1
    20   16   17 1
    21   17   18 ar
    22   17   22 ar
    23   18   19 ar
    24   19   20 ar
    25   20   21 ar
    26   21   22 ar
    27    3   26 1
    28    5   27 1
    29    6   28 1
    30    6   29 1
    31    9   30 1
    32   11   31 1
    33   12   32 1
    34   12   33 1
    35   13   34 1
    36   13   35 1
    37   14   36 1
    38   14   37 1
    39   15   38 1
    40   15   39 1
    41   18   40 1
    42   19   41 1
    43   20   42 1
    44   21   43 1
    45   22   44 1
@<TRIPOS>MOLECULE
*****
   76    78     0     0     0
SMALL
NO_CHARGES

@<TRIPOS>ATOM
      1 O1          0.0000    0.8250    0.0000 OH        1 <0>         0.0000
      2 C1          0.0000    0.0000    0.0000 CT        1 <0>         0.0000
      3 C2         -0.7145   -0.4125    0.0000 CT        1 <0>         0.0000
      4 O2         -0.7145   -1.2375    0.0000 OS        1 <0>         0.0000
      5 C3         -1.4289   -1.6500    0.0000 CT        1 <0>         0.0000
      6 O3         -1.4289   -2.4750    0.0000 OS        1 <0>         0.0000
      7 C4         -0.7145   -2.8875    0.0000 CT        1 <0>         0.0000
      8 C5          0.0000   -2.4750    0.0000 CT        1 <0>         0.0000
      9 O4          0.0000   -1.6500    0.0000 OH        1 <0>         0.0000
     10 C6          0.7145   -2.8875    0.0000 CT        1 <0>         0.0000
     11 O5          1.4289   -2.4750    0.0000 OH        1 <0>         0.0000
     12 C7          0.7145   -3.7125    0.0000 CT        1 <0>         0.0000
     13 O6          1.4289   -4.1250    0.0000 OS        1 <0>         0.0000
     14 C8          2.1434   -3.7125    0.0000 CT        1 <0>         0.0000
     15 C9          2.8579   -4.1250    0.0000 CT        1 <0>         0.0000
     16 C10         3.5724   -3.7125    0.0000 CT        1 <0>         0.0000
     17 C11         4.2868   -4.1250    0.0000 CT        1 <0>         0.0000
     18 C12         5.0013   -3.7125    0.0000 CT        1 <0>         0.0000
     19 C13         5.7158   -4.1250    0.0000 CT        1 <0>         0.0000
     20 C14         6.4302   -3.7125    0.0000 CT        1 <0>         0.0000
     21 C15         7.1447   -4.1250    0.0000 CT        1 <0>         0.0000
     22 C16         7.1447   -4.9500    0.0000 CT        1 <0>         0.0000
     23 C17         6.4302   -5.3625    0.0000 CT        1 <0>         0.0000
     24 C18         5.7158   -4.9500    0.0000 CT        1 <0>         0.0000
     25 O7          0.0000   -4.1250    0.0000 OS        1 <0>         0.0000
     26 C19        -0.7145   -3.7125    0.0000 CT        1 <0>         0.0000
     27 C20        -1.4289   -4.1250    0.0000 CT        1 <0>         0.0000
     28 O8         -2.1434   -3.7125    0.0000 OH        1 <0>         0.0000
     29 C21        -2.1434   -1.2375    0.0000 CT        1 <0>         0.0000
     30 O9         -2.8579   -1.6500    0.0000 OH        1 <0>         0.0000
     31 C22        -2.1434   -0.4125    0.0000 CT        1 <0>         0.0000
     32 O10        -2.8579    0.0000    0.0000 OH        1 <0>         0.0000
     33 C23        -1.4289    0.0000    0.0000 CT        1 <0>         0.0000
     34 O11        -1.4289    0.8250    0.0000 OH        1 <0>         0.0000
     35 H1          0.0000    0.8250    0.0000 HO        1 <0>         0.0000
     36 H2          0.0000    0.0000    0.0000 H1        1 <0>         0.0000
     37 H3          0.0000    0.0000    0.0000 H1        1 <0>         0.0000
     38 H4         -0.7145   -0.4125    0.0000 H1        1 <0>         0.0000
     39 H5         -1.4289   -1.6500    0.0000 H2        1 <0>         0.0000
     40 H6         -0.7145   -2.8875    0.0000 H1        1 <0>         0.0000
     41 H7          0.0000   -2.4750    0.0000 H1        1 <0>         0.0000
     42 H8          0.0000   -1.6500    0.0000 HO        1 <0>         0.0000
     43 H9          0.7145   -2.8875    0.0000 H1        1 <0>         0.0000
     44 H10         1.4289   -2.4750    0.0000 HO        1 <0>         0.0000
     45 H11         0.7145   -3.7125    0.0000 H2        1 <0>         0.0000
     46 H12         2.1434   -3.7125    0.0000 H1        1 <0>         0.0000
     47 H13         2.1434   -3.7125    0.0000 H1        1 <0>         0.0000
     48 H14         2.8579   -4.1250    0.0000 HC        1 <0>         0.0000
     49 H15         2.8579   -4.1250    0.0000 HC        1 <0>         0.0000
     50 H16         3.5724   -3.7125    0.0000 HC        1 <0>         0.0000
     51 H17         3.5724   -3.7125    0.0000 HC        1 <0>         0.0000
     52 H18         4.2868   -4.1250    0.0000 HC        1 <0>         0.0000
     53 H19         4.2868   -4.1250    0.0000 HC        1 <0>         0.0000
     54 H20         5.0013   -3.7125    0.0000 HC        1 <0>         0.0000
     55 H21         5.0013   -3.7125    0.0000 HC        1 <0>         0.0000
     56 H22         5.7158   -4.1250    0.0000 HC        1 <0>         0.0000
     57 H23         6.4302   -3.7125    0.0000 HC        1 <0>         0.0000
     58 H24         6.4302   -3.7125    0.0000 HC        1 <0>         0.0000
     59 H25         7.1447   -4.1250    0.0000 HC        1 <0>         0.0000
     60 H26         7.1447   -4.1250    0.0000 HC        1 <0>         0.0000
     61 H27         7.1447   -4.9500    0.0000 HC        1 <0>         0.0000
     62 H28         7.1447   -4.9500    0.0000 HC        1 <0>         0.0000
     63 H29         6.4302   -5.3625    0.0000 HC        1 <0>         0.0000
     64 H30         6.4302   -5.3625    0.0000 HC        1 <0>         0.0000
     65 H31         5.7158   -4.9500    0.0000 HC        1 <0>         0.0000
     66 H32         5.7158   -4.9500    0.0000 HC        1 <0>         0.0000
     67 H33        -0.7145   -3.7125    0.0000 H1        1 <0>         0.0000
     68 H34        -1.4289   -4.1250    0.0000 H1        1 <0>         0.0000
     69 H35        -1.4289   -4.1250    0.0000 H1        1 <0>         0.0000
     70 H36        -2.1434   -3.7125    0.0000 HO        1 <0>         0.0000
     71 H37        -2.1434   -1.2375    0.0000 H1        1 <0>         0.0000
     72 H38        -2.8579   -1.6500    0.0000 HO        1 <0>         0.0000
     73 H39        -2.1434   -0.4125    0.0000 H1        1 <0>         0.0000
     74 H40        -2.8579    0.0000    0.0000 HO        1 <0>         0.0000
     75 H41        -1.4289    0.0000    0.0000 H1        1 <0>         0.0000
     76 H42        -1.4289    0.8250    0.0000 HO        1 <0>         0.0000
@<TRIPOS>BOND
     1    1    2 1
     2    2    3 1
     3    3    4 1
     4    4    5 1
     5    5    6 1
     6    6    7 1
     7    7    8 1
     8    8    9 1
     9    8   10 1
    10   10   11 1
    11   10   12 1
    12   12   13 1
    13   13   14 1
    14   14   15 1
    15   15   16 1
    16   16   17 1
    17   17   18 1
    18   18   19 1
    19   19   20 1
    20   20   21 1
    21   21   22 1
    22   22   23 1
    23   23   24 1
    24   19   24 1
    25   12   25 1
    26   25   26 1
    27    7   26 1
    28   26   27 1
    29   27   28 1
    30    5   29 1
    31   29   30 1
    32   29   31 1
    33   31   32 1
    34   31   33 1
    35    3   33 1
    36   33   34 1
    37    1   35 1
    38    2   36 1
    39    2   37 1
    40    3   38 1
    41    5   39 1
    42    7   40 1
    43    8   41 1
    44    9   42 1
    45   10   43 1
    46   11   44 1
    47   12   45 1
    48   14   46 1
    49   14   47 1
    50   15   48 1
    51   15   49 1
    52   16   50 1
    53   16   51 1
    54   17   52 1
    55   17   53 1
    56   18   54 1
    57   18   55 1
    58   19   56 1
    59   20   57 1
    60   20   58 1
    61   21   59 1
    62   21   60 1
    63   22   61 1
    64   22   62 1
    65   23   63 1
    66   23   64 1
    67   24   65 1
    68   24   66 1
    69   26   67 1
    70   27   68 1
    71   27   69 1
    72   28   70 1
    73   29   71 1
    74   30   72 1
    75   31   73 1
    76   32   74 1
    77   33   75 1
    78   34   76 1
@<TRIPOS>MOLECULE
Coumarin
   17    18     0     0     0
SMALL
NO_CHARGES

@<TRIPOS>ATOM
      1 O1          0.0000    0.0000    0.0000 O         1 <0>         0.0000
      2 C1          0.7145   -0.4125    0.0000 C         1 <0>         0.0000
      3 O2          1.4289    0.0000    0.0000 OS        1 <0>         0.0000
      4 C2          2.1434   -0.4125    0.0000 CB        1 <0>         0.0000
      5 C3          2.8579    0.0000    0.0000 CA        1 <0>         0.0000
      6 C4          3.5724   -0.4125    0.0000 CA        1 <0>         0.0000
      7 C5          3.5724   -1.2375    0.0000 CA        1 <0>         0.0000
      8 C6          2.8579   -1.6500    0.0000 CA        1 <0>         0.0000
      9 C7          2.1434   -1.2375    0.0000 CB        1 <0>         0.0000
     10 C8          1.4289   -1.6500    0.0000 CA        1 <0>         0.0000
     11 C9          0.7145   -1.2375    0.0000 CA        1 <0>         0.0000
     12 H1          2.8579    0.0000    0.0000 HA        1 <0>         0.0000
     13 H2          3.5724   -0.4125    0.0000 HA        1 <0>         0.0000
     14 H3          3.5724   -1.2375    0.0000 HA        1 <0>         0.0000
     15 H4          2.8579   -1.6500    0.0000 HA        1 <0>         0.0000
     16 H5          1.4289   -1.6500    0.0000 HA        1 <0>         0.0000
     17 H6          0.7145   -1.2375    0.0000 HA        1 <0>         0.0000
@<TRIPOS>BOND
     1    1    2 2
     2    2    3 1
     3    3    4 1
     4    4    5 ar
     5    5    6 ar
     6    6    7 ar
     7    7    8 ar
     8    8    9 ar
     9    4    9 ar
    10    9   10 1
    11   10   11 2
    12    2   11 1
    13    5   12 1
    14    6   13 1
    15    7   14 1
    16    8   15 1
    17   10   16 1
    18   11   17 1
@<TRIPOS>MOLECULE
DR4
   54    54     0     0     0
SMALL
NO_CHARGES

@<TRIPOS>ATOM
      1 C1         -5.9724    0.1051    0.0000 CT        1 <0>         0.0000
      2 O1         -5.2579    0.5176    0.0000 OS        1 <0>         0.0000
      3 C2         -4.5433    0.1051    0.0000 C         1 <0>         0.0000
      4 O2         -4.5433   -0.7200    0.0000 O         1 <0>         0.0000
      5 C3         -3.8289    0.5176    0.0000 CT        1 <0>         0.0000
      6 C4         -3.1143    0.1051    0.0000 CT        1 <0>         0.0000
      7 C5         -2.3998    0.5176    0.0000 CT        1 <0>         0.0000
      8 C6         -1.6852    0.1051    0.0000 CT        1 <0>         0.0000
      9 C7         -0.9708    0.5176    0.0000 CT        1 <0>         0.0000
     10 C8         -0.2562    0.1051    0.0000 CT        1 <0>         0.0000
     11 C9          0.4583    0.5176    0.0000 CT        1 <0>         0.0000
     12 C10         1.1728    0.1051    0.0000 CT        1 <0>         0.0000
     13 O3          1.8873    0.5176    0.0000 OS        1 <0>         0.0000
     14 C11         2.6019    0.1051    0.0000 CT        1 <0>         0.0000
     15 O4          3.3164    0.5176    0.0000 OS        1 <0>         0.0000
     16 C12         4.0309    0.1051    0.0000 CT        1 <0>         0.0000
     17 C13         4.7455    0.5176    0.0000 CT        1 <0>         0.0000
     18 O5          4.7455    1.3427    0.0000 OH        1 <0>         0.0000
     19 C14         4.0309   -0.7200    0.0000 CT        1 <0>         0.0000
     20 O6          4.7455   -1.1325    0.0000 OH        1 <0>         0.0000
     21 C15         3.3164   -1.1325    0.0000 CT        1 <0>         0.0000
     22 O7          3.3164   -1.9575    0.0000 OH        1 <0>         0.0000
     23 C16         2.6019   -0.7200    0.0000 CT        1 <0>         0.0000
     24 O8          1.8873   -1.1325    0.0000 OH        1 <0>         0.0000
     25 H1          2.6019    0.6892    0.0000 H2        1 <0>         0.0000
     26 H2          4.0309    0.6892    0.0000 H1        1 <0>         0.0000
     27 H3          4.5366   -0.4279    0.0000 H1        1 <0>         0.0000
     28 H4          3.8222   -1.4244    0.0000 H1        1 <0>         0.0000
     29 H5          2.0962   -0.4279    0.0000 H1        1 <0>         0.0000
     30 H6         -5.9724    0.1051    0.0000 H1        1 <0>         0.0000
     31 H7         -5.9724    0.1051    0.0000 H1        1 <0>         0.0000
     32 H8         -5.9724    0.1051    0.0000 H1        1 <0>         0.0000
     33 H9         -3.8289    0.5176    0.0000 HC        1 <0>         0.0000
     34 H10        -3.8289    0.5176    0.0000 HC        1 <0>         0.0000
     35 H11        -3.1143    0.1051    0.0000 HC        1 <0>         0.0000
     36 H12        -3.1143    0.1051    0.0000 HC        1 <0>         0.0000
     37 H13        -2.3998    0.5176    0.0000 HC        1 <0>         0.0000
     38 H14        -2.3998    0.5176    0.0000 HC        1 <0>         0.0000
     39 H15        -1.6852    0.1051    0.0000 HC        1 <0>         0.0000
     40 H16        -1.6852    0.1051    0.0000 HC        1 <0>         0.0000
     41 H17        -0.9708    0.5176    0.0000 HC        1 <0>         0.0000
     42 H18        -0.9708    0.5176    0.0000 HC        1 <0>         0.0000
     43 H19        -0.2562    0.1051    0.0000 HC        1 <0>         0.0000
     44 H20        -0.2562    0.1051    0.0000 HC        1 <0>         0.0000
     45 H21         0.4583    0.5176    0.0000 HC        1 <0>         0.0000
     46 H22         0.4583    0.5176    0.0000 HC        1 <0>         0.0000
     47 H23         1.1728    0.1051    0.0000 H1        1 <0>         0.0000
     48 H24         1.1728    0.1051    0.0000 H1        1 <0>         0.0000
     49 H25         4.7455    0.5176    0.0000 H1        1 <0>         0.0000
     50 H26         4.7455    0.5176    0.0000 H1        1 <0>         0.0000
     51 H27         4.7455    1.3427    0.0000 HO        1 <0>         0.0000
     52 H28         4.7455   -1.1325    0.0000 HO        1 <0>         0.0000
     53 H29         3.3164   -1.9575    0.0000 HO        1 <0>         0.0000
     54 H30         1.8873   -1.1325    0.0000 HO        1 <0>         0.0000
@<TRIPOS>BOND
     1    1    2 1
     2    2    3 1
     3    3    4 2
     4    3    5 1
     5    5    6 1
     6    6    7 1
     7    7    8 1
     8    8    9 1
     9    9   10 1
    10   10   11 1
    11   11   12 1
    12   12   13 1
    13   13   14 1
    14   14   15 1
    15   14   23 1
    16   14   25 1
    17   15   16 1
    18   16   17 1
    19   16   19 1
    20   16   26 1
    21   17   18 1
    22   19   20 1
    23   19   21 1
    24   19   27 1
    25   21   22 1
    26   21   23 1
    27   21   28 1
    28   23   24 1
    29   23   29 1
    30    1   30 1
    31    1   31 1
    32    1   32 1
    33    5   33 1
    34    5   34 1
    35    6   35 1
    36    6   36 1
    37    7   37 1
    38    7   38 1
    39    8   39 1
    40    8   40 1
    41    9   41 1
    42    9   42 1
    43   10   43 1
    44   10   44 1
    45   11   45 1
    46   11   46 1
    47   12   47 1
    48   12   48 1
    49   17   49 1
    50   17   50 1
    51   18   51 1
    52   20   52 1
    53   22   53 1
    54   24   54 1
@<TRIPOS>MOLECULE
*****
   48    49     0     0     0
SMALL
NO_CHARGES

@<TRIPOS>ATOM
      1 C1          0.0000    0.0000    0.0000 CT        1 <0>         0.0000
      2 O1         -0.7145   -0.4125    0.0000 OS        1 <0>         0.0000
      3 C2         -0.7145   -1.2375    0.0000 CT        1 <0>         0.0000
      4 O2         -1.4289   -1.6500    0.0000 OS        1 <0>         0.0000
      5 C3         -1.4289   -2.4750    0.0000 CT        1 <0>         0.0000
      6 C4         -2.1434   -2.8875    0.0000 CT        1 <0>         0.0000
      7 O3         -2.1434   -3.7125    0.0000 OH        1 <0>         0.0000
      8 C5         -0.7145   -2.8875    0.0000 CT        1 <0>         0.0000
      9 O4         -0.7145   -3.7125    0.0000 OS        1 <0>         0.0000
     10 C6          0.0000   -4.1250    0.0000 CT        1 <0>         0.0000
     11 O5          0.7145   -3.7125    0.0000 OS        1 <0>         0.0000
     12 C7          1.4289   -4.1250    0.0000 CT        1 <0>         0.0000
     13 C8          2.1434   -3.7125    0.0000 CT        1 <0>         0.0000
     14 O6          2.1434   -2.8875    0.0000 OH        1 <0>         0.0000
     15 C9          1.4289   -4.9500    0.0000 CT        1 <0>         0.0000
     16 O7          2.1434   -5.3625    0.0000 OH        1 <0>         0.0000
     17 C10         0.7145   -5.3625    0.0000 CT        1 <0>         0.0000
     18 O8          0.7145   -6.1875    0.0000 OH        1 <0>         0.0000
     19 C11         0.0000   -4.9500    0.0000 CT        1 <0>         0.0000
     20 O9         -0.7145   -5.3625    0.0000 OH        1 <0>         0.0000
     21 C12         0.0000   -2.4750    0.0000 CT        1 <0>         0.0000
     22 O10         0.7145   -2.8875    0.0000 OH        1 <0>         0.0000
     23 C13         0.0000   -1.6500    0.0000 CT        1 <0>         0.0000
     24 O11         0.7145   -1.2375    0.0000 OH        1 <0>         0.0000
     25 H1          0.0000    0.0000    0.0000 H1        1 <0>         0.0000
     26 H2          0.0000    0.0000    0.0000 H1        1 <0>         0.0000
     27 H3          0.0000    0.0000    0.0000 H1        1 <0>         0.0000
     28 H4         -0.7145   -1.2375    0.0000 H2        1 <0>         0.0000
     29 H5         -1.4289   -2.4750    0.0000 H1        1 <0>         0.0000
     30 H6         -2.1434   -2.8875    0.0000 H1        1 <0>         0.0000
     31 H7         -2.1434   -2.8875    0.0000 H1        1 <0>         0.0000
     32 H8         -2.1434   -3.7125    0.0000 HO        1 <0>         0.0000
     33 H9         -0.7145   -2.8875    0.0000 H1        1 <0>         0.0000
     34 H10         0.0000   -4.1250    0.0000 H2        1 <0>         0.0000
     35 H11         1.4289   -4.1250    0.0000 H1        1 <0>         0.0000
     36 H12         2.1434   -3.7125    0.0000 H1        1 <0>         0.0000
     37 H13         2.1434   -3.7125    0.0000 H1        1 <0>         0.0000
     38 H14         2.1434   -2.8875    0.0000 HO        1 <0>         0.0000
     39 H15         1.4289   -4.9500    0.0000 H1        1 <0>         0.0000
     40 H16         2.1434   -5.3625    0.0000 HO        1 <0>         0.0000
     41 H17         0.7145   -5.3625    0.0000 H1        1 <0>         0.0000
     42 H18         0.7145   -6.1875    0.0000 HO        1 <0>         0.0000
     43 H19         0.0000   -4.9500    0.0000 H1        1 <0>         0.0000
     44 H20        -0.7145   -5.3625    0.0000 HO        1 <0>         0.0000
     45 H21         0.0000   -2.4750    0.0000 H1        1 <0>         0.0000
     46 H22         0.7145   -2.8875    0.0000 HO        1 <0>         0.0000
     47 H23         0.0000   -1.6500    0.0000 H1        1 <0>         0.0000
     48 H24         0.7145   -1.2375    0.0000 HO        1 <0>         0.0000
@<TRIPOS>BOND
     1    1    2 1
     2    2    3 1
     3    3    4 1
     4    4    5 1
     5    5    6 1
     6    6    7 1
     7    5    8 1
     8    8    9 1
     9    9   10 1
    10   10   11 1
    11   11   12 1
    12   12   13 1
    13   13   14 1
    14   12   15 1
    15   15   16 1
    16   15   17 1
    17   17   18 1
    18   17   19 1
    19   10   19 1
    20   19   20 1
    21    8   21 1
    22   21   22 1
    23   21   23 1
    24    3   23 1
    25   23   24 1
    26    1   25 1
    27    1   26 1
    28    1   27 1
    29    3   28 1
    30    5   29 1
    31    6   30 1
    32    6   31 1
    33    7   32 1
    34    8   33 1
    35   10   34 1
    36   12   35 1
    37   13   36 1
    38   13   37 1
    39   14   38 1
    40   15   39 1
    41   16   40 1
    42   17   41 1
    43   18   42 1
    44   19   43 1
    45   20   44 1
    46   21   45 1
    47   22   46 1
    48   23   47 1
    49   24   48 1
@<TRIPOS>MOLECULE
*****
   65    65     0     0     0
SMALL
NO_CHARGES

@<TRIPOS>ATOM
      1 C1         -1.4289   -2.4750    0.0000 CT        1 <0>         0.0000
      2 C2         -1.4289   -1.6500    0.0000 CT        1 <0>         0.0000
      3 C3         -0.6039   -1.6500    0.0000 CT        1 <0>         0.0000
      4 C4         -2.2539   -1.6500    0.0000 CT        1 <0>         0.0000
      5 C5         -1.4289   -0.8250    0.0000 CT        1 <0>         0.0000
      6 C6         -0.7145   -0.4125    0.0000 CT        1 <0>         0.0000
      7 C7         -0.3020   -1.1270    0.0000 CT        1 <0>         0.0000
      8 C8         -1.1270    0.3020    0.0000 CT        1 <0>         0.0000
      9 C9          0.0000    0.0000    0.0000 CA        1 <0>         0.0000
     10 C10         0.0000    0.8250    0.0000 CA        1 <0>         0.0000
     11 C11         0.7145    1.2375    0.0000 CA        1 <0>         0.0000
     12 C12         1.4289    0.8250    0.0000 CA        1 <0>         0.0000
     13 O1          2.1434    1.2375    0.0000 OS        1 <0>         0.0000
     14 C13         2.8579    0.8250    0.0000 CT        1 <0>         0.0000
     15 C14         3.5724    1.2375    0.0000 CT        1 <0>         0.0000
     16 O2          4.2868    0.8250    0.0000 OS        1 <0>         0.0000
     17 C15         5.0013    1.2375    0.0000 CT        1 <0>         0.0000
     18 C16         5.7158    0.8250    0.0000 CT        1 <0>         0.0000
     19 O3          6.4302    1.2375    0.0000 OS        1 <0>         0.0000
     20 C17         7.1447    0.8250    0.0000 CT        1 <0>         0.0000
     21 C18         7.8592    1.2375    0.0000 CT        1 <0>         0.0000
     22 O4          8.5737    0.8250    0.0000 OS        1 <0>         0.0000
     23 C19         9.2881    1.2375    0.0000 CT        1 <0>         0.0000
     24 C20        10.0026    0.8250    0.0000 CT        1 <0>         0.0000
     25 O5         10.7171    1.2375    0.0000 OH        1 <0>         0.0000
     26 C21         1.4289    0.0000    0.0000 CA        1 <0>         0.0000
     27 C22         0.7145   -0.4125    0.0000 CA        1 <0>         0.0000
     28 H1         -1.4289   -2.4750    0.0000 HC        1 <0>         0.0000
     29 H2         -1.4289   -2.4750    0.0000 HC        1 <0>         0.0000
     30 H3         -1.4289   -2.4750    0.0000 HC        1 <0>         0.0000
     31 H4         -0.6039   -1.6500    0.0000 HC        1 <0>         0.0000
     32 H5         -0.6039   -1.6500    0.0000 HC        1 <0>         0.0000
     33 H6         -0.6039   -1.6500    0.0000 HC        1 <0>         0.0000
     34 H7         -2.2539   -1.6500    0.0000 HC        1 <0>         0.0000
     35 H8         -2.2539   -1.6500    0.0000 HC        1 <0>         0.0000
     36 H9         -2.2539   -1.6500    0.0000 HC        1 <0>         0.0000
     37 H10        -1.4289   -0.8250    0.0000 HC        1 <0>         0.0000
     38 H11        -1.4289   -0.8250    0.0000 HC        1 <0>         0.0000
     39 H12        -0.3020   -1.1270    0.0000 HC        1 <0>         0.0000
     40 H13        -0.3020   -1.1270    0.0000 HC        1 <0>         0.0000
     41 H14        -0.3020   -1.1270    0.0000 HC        1 <0>         0.0000
     42 H15        -1.1270    0.3020    0.0000 HC        1 <0>         0.0000
     43 H16        -1.1270    0.3020    0.0000 HC        1 <0>         0.0000
     44 H17        -1.1270    0.3020    0.0000 HC        1 <0>         0.0000
     45 H18         0.0000    0.8250    0.0000 HA        1 <0>         0.0000
     46 H19         0.7145    1.2375    0.0000 HA        1 <0>         0.0000
     47 H20         2.8579    0.8250    0.0000 H1        1 <0>         0.0000
     48 H21         2.8579    0.8250    0.0000 H1        1 <0>         0.0000
     49 H22         3.5724    1.2375    0.0000 H1        1 <0>         0.0000
     50 H23         3.5724    1.2375    0.0000 H1        1 <0>         0.0000
     51 H24         5.0013    1.2375    0.0000 H1        1 <0>         0.0000
     52 H25         5.0013    1.2375    0.0000 H1        1 <0>         0.0000
     53 H26         5.7158    0.8250    0.0000 H1        1 <0>         0.0000
     54 H27         5.7158    0.8250    0.0000 H1        1 <0>         0.0000
     55 H28         7.1447    0.8250    0.0000 H1        1 <0>         0.0000
     56 H29         7.1447    0.8250    0.0000 H1        1 <0>         0.0000
     57 H30         7.8592    1.2375    0.0000 H1        1 <0>         0.0000
     58 H31         7.8592    1.2375    0.0000 H1        1 <0>         0.0000
     59 H32         9.2881    1.2375    0.0000 H1        1 <0>         0.0000
     60 H33         9.2881    1.2375    0.0000 H1        1 <0>         0.0000
     61 H34        10.0026    0.8250    0.0000 H1        1 <0>         0.0000
     62 H35        10.0026    0.8250    0.0000 H1        1 <0>         0.0000
     63 H36        10.7171    1.2375    0.0000 HO        1 <0>         0.0000
     64 H37         1.4289    0.0000    0.0000 HA        1 <0>         0.0000
     65 H38         0.7145   -0.4125    0.0000 HA        1 <0>         0.0000
@<TRIPOS>BOND
     1    1    2 1
     2    2    3 1
     3    2    4 1
     4    2    5 1
     5    5    6 1
     6    6    7 1
     7    6    8 1
     8    6    9 1
     9    9   10 ar
    10   10   11 ar
    11   11   12 ar
    12   12   13 1
    13   13   14 1
    14   14   15 1
    15   15   16 1
    16   16   17 1
    17   17   18 1
    18   18   19 1
    19   19   20 1
    20   20   21 1
    21   21   22 1
    22   22   23 1
    23   23   24 1
    24   24   25 1
    25   12   26 ar
    26   26   27 ar
    27    9   27 ar
    28    1   28 1
    29    1   29 1
    30    1   30 1
    31    3   31 1
    32    3   32 1
    33    3   33 1
    34    4   34 1
    35    4   35 1
    36    4   36 1
    37    5   37 1
    38    5   38 1
    39    7   39 1
    40    7   40 1
    41    7   41 1
    42    8   42 1
    43    8   43 1
    44    8   44 1
    45   10   45 1
    46   11   46 1
    47   14   47 1
    48   14   48 1
    49   15   49 1
    50   15   50 1
    51   17   51 1
    52   17   52 1
    53   18   53 1
    54   18   54 1
    55   20   55 1
    56   20   56 1
    57   21   57 1
    58   21   58 1
    59   23   59 1
    60   23   60 1
    61   24   61 1
    62   24   62 1
    63   25   63 1
    64   26   64 1
    65   27   65 1
@<TRIPOS>MOLECULE
*****
   46    49     0     0     0
SMALL
NO_CHARGES

@<TRIPOS>ATOM
      1 C1          1.3895   -1.8497    0.0000 CT        1 <0>         0.0000
      2 C2          1.7494   -2.5921    0.0000 CT        1 <0>         0.0000
      3 C3          2.2812   -1.9614    0.0000 CT        1 <0>         0.0000
      4 C4          3.0934   -2.1066    0.0000 CT        1 <0>         0.0000
      5 C5          3.3737   -2.8825    0.0000 CT        1 <0>         0.0000
      6 C6          4.1858   -3.0277    0.0000 CT        1 <0>         0.0000
      7 C7          4.7176   -2.3970    0.0000 CT        1 <0>         0.0000
      8 C8          5.5297   -2.5422    0.0000 CT        1 <0>         0.0000
      9 C9          5.8100   -3.3182    0.0000 C         1 <0>         0.0000
     10 O1          6.6221   -3.4634    0.0000 O         1 <0>         0.0000
     11 C10         5.2782   -3.9489    0.0000 CT        1 <0>         0.0000
     12 C11         4.4661   -3.8037    0.0000 CT        1 <0>         0.0000
     13 C12         3.9343   -4.4344    0.0000 CT        1 <0>         0.0000
     14 C13         3.1221   -4.2891    0.0000 CT        1 <0>         0.0000
     15 C14         2.8418   -3.5132    0.0000 CT        1 <0>         0.0000
     16 C15         2.0297   -3.3680    0.0000 CT        1 <0>         0.0000
     17 C16         1.3784   -3.8744    0.0000 CT        1 <0>         0.0000
     18 C17         0.6955   -3.4114    0.0000 CT        1 <0>         0.0000
     19 C18         0.9249   -2.6189    0.0000 C         1 <0>         0.0000
     20 O2          0.4185   -1.9676    0.0000 O         1 <0>         0.0000
     21 H1          1.3895   -1.8497    0.0000 HC        1 <0>         0.0000
     22 H2          1.3895   -1.8497    0.0000 HC        1 <0>         0.0000
     23 H3          1.3895   -1.8497    0.0000 HC        1 <0>         0.0000
     24 H4          2.2812   -1.9614    0.0000 HC        1 <0>         0.0000
     25 H5          2.2812   -1.9614    0.0000 HC        1 <0>         0.0000
     26 H6          3.0934   -2.1066    0.0000 HC        1 <0>         0.0000
     27 H7          3.0934   -2.1066    0.0000 HC        1 <0>         0.0000
     28 H8          3.3737   -2.8825    0.0000 HC        1 <0>         0.0000
     29 H9          4.1858   -3.0277    0.0000 HC        1 <0>         0.0000
     30 H10         4.7176   -2.3970    0.0000 HC        1 <0>         0.0000
     31 H11         4.7176   -2.3970    0.0000 HC        1 <0>         0.0000
     32 H12         5.5297   -2.5422    0.0000 HC        1 <0>         0.0000
     33 H13         5.5297   -2.5422    0.0000 HC        1 <0>         0.0000
     34 H14         5.2782   -3.9489    0.0000 HC        1 <0>         0.0000
     35 H15         5.2782   -3.9489    0.0000 HC        1 <0>         0.0000
     36 H16         4.4661   -3.8037    0.0000 HC        1 <0>         0.0000
     37 H17         3.9343   -4.4344    0.0000 HC        1 <0>         0.0000
     38 H18         3.9343   -4.4344    0.0000 HC        1 <0>         0.0000
     39 H19         3.1221   -4.2891    0.0000 HC        1 <0>         0.0000
     40 H20         3.1221   -4.2891    0.0000 HC        1 <0>         0.0000
     41 H21         2.8418   -3.5132    0.0000 HC        1 <0>         0.0000
     42 H22         2.0297   -3.3680    0.0000 HC        1 <0>         0.0000
     43 H23         1.3784   -3.8744    0.0000 HC        1 <0>         0.0000
     44 H24         1.3784   -3.8744    0.0000 HC        1 <0>         0.0000
     45 H25         0.6955   -3.4114    0.0000 HC        1 <0>         0.0000
     46 H26         0.6955   -3.4114    0.0000 HC        1 <0>         0.0000
@<TRIPOS>BOND
     1    1    2 1
     2    2    3 1
     3    3    4 1
     4    4    5 1
     5    5    6 1
     6    6    7 1
     7    7    8 1
     8    8    9 1
     9    9   10 2
    10    9   11 1
    11   11   12 1
    12    6   12 1
    13   12   13 1
    14   13   14 1
    15   14   15 1
    16    5   15 1
    17   15   16 1
    18    2   16 1
    19   16   17 1
    20   17   18 1
    21   18   19 1
    22    2   19 1
    23   19   20 2
    24    1   21 1
    25    1   22 1
    26    1   23 1
    27    3   24 1
    28    3   25 1
    29    4   26 1
    30    4   27 1
    31    5   28 1
    32    6   29 1
    33    7   30 1
    34    7   31 1
    35    8   32 1
    36    8   33 1
    37   11   34 1
    38   11   35 1
    39   12   36 1
    40   13   37 1
    41   13   38 1
    42   14   39 1
    43   14   40 1
    44   15   41 1
    45   16   42 1
    46   17   43 1
    47   17   44 1
    48   18   45 1
    49   18   46 1
@<TRIPOS>MOLECULE
*****
   12    12     0     0     0
SMALL
NO_CHARGES

@<TRIPOS>ATOM
      1 O1          0.5678    1.9393    0.0000 O         1 <0>         0.0000
      2 C1          0.5678    1.1143    0.0000 C         1 <0>         0.0000
      3 C2          1.2352    0.6294    0.0000 CT        1 <0>         0.0000
      4 C3          0.9803   -0.1553    0.0000 CT        1 <0>         0.0000
      5 C4          0.1553   -0.1553    0.0000 CT        1 <0>         0.0000
      6 O2         -0.0997    0.6294    0.0000 OS        1 <0>         0.0000
      7 H1          1.2352    0.6294    0.0000 HC        1 <0>         0.0000
      8 H2          1.2352    0.6294    0.0000 HC        1 <0>         0.0000
      9 H3          0.9803   -0.1553    0.0000 HC        1 <0>         0.0000
     10 H4          0.9803   -0.1553    0.0000 HC        1 <0>         0.0000
     11 H5          0.1553   -0.1553    0.0000 H1        1 <0>         0.0000
     12 H6          0.1553   -0.1553    0.0000 H1        1 <0>         0.0000
@<TRIPOS>BOND
     1    1    2 2
     2    2    3 1
     3    3    4 1
     4    4    5 1
     5    5    6 1
     6    2    6 1
     7    3    7 1
     8    3    8 1
     9    4    9 1
    10    4   10 1
    11    5   11 1
    12    5   12 1
@<TRIPOS>MOLECULE
*****
   75    78     0     0     0
SMALL
NO_CHARGES

@<TRIPOS>ATOM
      1 C1          6.9960   -2.9136    0.0000 CT        1 <0>         0.0000
      2 C2          7.7104   -2.5011    0.0000 CT        1 <0>         0.0000
      3 C3          7.7104   -1.6761    0.0000 CT        1 <0>         0.0000
      4 C4          8.4249   -2.9136    0.0000 CT        1 <0>         0.0000
      5 C5          9.1394   -2.5011    0.0000 CT        1 <0>         0.0000
      6 C6          9.8538   -2.9136    0.0000 CT        1 <0>         0.0000
      7 C7         10.5683   -2.5011    0.0000 CT        1 <0>         0.0000
      8 C8         10.9808   -3.2156    0.0000 CT        1 <0>         0.0000
      9 O1         10.1558   -1.7867    0.0000 OH        1 <0>         0.0000
     10 C9         11.2828   -2.0886    0.0000 CT        1 <0>         0.0000
     11 C10        11.3690   -1.2682    0.0000 CT        1 <0>         0.0000
     12 C11        12.1760   -1.0966    0.0000 CT        1 <0>         0.0000
     13 C12        12.5885   -1.8111    0.0000 CT        1 <0>         0.0000
     14 C13        13.3955   -1.9826    0.0000 CT        1 <0>         0.0000
     15 C14        13.9475   -1.3695    0.0000 CT        1 <0>         0.0000
     16 C15        14.7545   -1.5411    0.0000 CM        1 <0>         0.0000
     17 C16        15.0094   -2.3257    0.0000 CM        1 <0>         0.0000
     18 C17        15.8164   -2.4972    0.0000 CT        1 <0>         0.0000
     19 C18        16.0713   -3.2818    0.0000 CT        1 <0>         0.0000
     20 O2         16.8783   -3.4534    0.0000 OH        1 <0>         0.0000
     21 C19        15.5193   -3.8949    0.0000 CT        1 <0>         0.0000
     22 C20        14.7123   -3.7234    0.0000 CT        1 <0>         0.0000
     23 C21        14.4574   -2.9388    0.0000 CT        1 <0>         0.0000
     24 C22        13.9053   -3.5519    0.0000 CT        1 <0>         0.0000
     25 C23        13.6504   -2.7673    0.0000 CT        1 <0>         0.0000
     26 C24        13.0984   -3.3803    0.0000 CT        1 <0>         0.0000
     27 C25        12.2914   -3.2088    0.0000 CT        1 <0>         0.0000
     28 C26        12.0365   -2.4242    0.0000 CT        1 <0>         0.0000
     29 C27        11.4234   -2.9762    0.0000 CT        1 <0>         0.0000
     30 H1          6.9960   -2.9136    0.0000 HC        1 <0>         0.0000
     31 H2          6.9960   -2.9136    0.0000 HC        1 <0>         0.0000
     32 H3          6.9960   -2.9136    0.0000 HC        1 <0>         0.0000
     33 H4          7.7104   -2.5011    0.0000 HC        1 <0>         0.0000
     34 H5          7.7104   -1.6761    0.0000 HC        1 <0>         0.0000
     35 H6          7.7104   -1.6761    0.0000 HC        1 <0>         0.0000
     36 H7          7.7104   -1.6761    0.0000 HC        1 <0>         0.0000
     37 H8          8.4249   -2.9136    0.0000 HC        1 <0>         0.0000
     38 H9          8.4249   -2.9136    0.0000 HC        1 <0>         0.0000
     39 H10         9.1394   -2.5011    0.0000 HC        1 <0>         0.0000
     40 H11         9.1394   -2.5011    0.0000 HC        1 <0>         0.0000
     41 H12         9.8538   -2.9136    0.0000 HC        1 <0>         0.0000
     42 H13         9.8538   -2.9136    0.0000 HC        1 <0>         0.0000
     43 H14        10.9808   -3.2156    0.0000 HC        1 <0>         0.0000
     44 H15        10.9808   -3.2156    0.0000 HC        1 <0>         0.0000
     45 H16        10.9808   -3.2156    0.0000 HC        1 <0>         0.0000
     46 H17        10.1558   -1.7867    0.0000 HO        1 <0>         0.0000
     47 H18        11.2828   -2.0886    0.0000 HC        1 <0>         0.0000
     48 H19        11.3690   -1.2682    0.0000 HC        1 <0>         0.0000
     49 H20        11.3690   -1.2682    0.0000 HC        1 <0>         0.0000
     50 H21        12.1760   -1.0966    0.0000 HC        1 <0>         0.0000
     51 H22        12.1760   -1.0966    0.0000 HC        1 <0>         0.0000
     52 H23        12.5885   -1.8111    0.0000 HC        1 <0>         0.0000
     53 H24        13.3955   -1.9826    0.0000 HC        1 <0>         0.0000
     54 H25        13.9475   -1.3695    0.0000 HC        1 <0>         0.0000
     55 H26        13.9475   -1.3695    0.0000 HC        1 <0>         0.0000
     56 H27        14.7545   -1.5411    0.0000 HA        1 <0>         0.0000
     57 H28        15.8164   -2.4972    0.0000 HC        1 <0>         0.0000
     58 H29        15.8164   -2.4972    0.0000 HC        1 <0>         0.0000
     59 H30        16.0713   -3.2818    0.0000 H1        1 <0>         0.0000
     60 H31        16.8783   -3.4534    0.0000 HO        1 <0>         0.0000
     61 H32        15.5193   -3.8949    0.0000 HC        1 <0>         0.0000
     62 H33        15.5193   -3.8949    0.0000 HC        1 <0>         0.0000
     63 H34        14.7123   -3.7234    0.0000 HC        1 <0>         0.0000
     64 H35        14.7123   -3.7234    0.0000 HC        1 <0>         0.0000
     65 H36        13.9053   -3.5519    0.0000 HC        1 <0>         0.0000
     66 H37        13.9053   -3.5519    0.0000 HC        1 <0>         0.0000
     67 H38        13.9053   -3.5519    0.0000 HC        1 <0>         0.0000
     68 H39        13.6504   -2.7673    0.0000 HC        1 <0>         0.0000
     69 H40        13.0984   -3.3803    0.0000 HC        1 <0>         0.0000
     70 H41        13.0984   -3.3803    0.0000 HC        1 <0>         0.0000
     71 H42        12.2914   -3.2088    0.0000 HC        1 <0>         0.0000
     72 H43        12.2914   -3.2088    0.0000 HC        1 <0>         0.0000
     73 H44        11.4234   -2.9762    0.0000 HC        1 <0>         0.0000
     74 H45        11.4234   -2.9762    0.0000 HC        1 <0>         0.0000
     75 H46        11.4234   -2.9762    0.0000 HC        1 <0>         0.0000
@<TRIPOS>BOND
     1    1    2 1
     2    2    3 1
     3    2    4 1
     4    4    5 1
     5    5    6 1
     6    6    7 1
     7    7    8 1
     8    7    9 1
     9    7   10 1
    10   10   11 1
    11   11   12 1
    12   12   13 1
    13   13   14 1
    14   14   15 1
    15   15   16 1
    16   16   17 2
    17   17   18 1
    18   18   19 1
    19   19   20 1
    20   19   21 1
    21   21   22 1
    22   22   23 1
    23   17   23 1
    24   23   24 1
    25   23   25 1
    26   14   25 1
    27   25   26 1
    28   26   27 1
    29   27   28 1
    30   10   28 1
    31   13   28 1
    32   28   29 1
    33    1   30 1
    34    1   31 1
    35    1   32 1
    36    2   33 1
    37    3   34 1
    38    3   35 1
    39    3   36 1
    40    4   37 1
    41    4   38 1
    42    5   39 1
    43    5   40 1
    44    6   41 1
    45    6   42 1
    46    8   43 1
    47    8   44 1
    48    8   45 1
    49    9   46 1
    50   10   47 1
    51   11   48 1
    52   11   49 1
    53   12   50 1
    54   12   51 1
    55   13   52 1
    56   14   53 1
    57   15   54 1
    58   15   55 1
    59   16   56 1
    60   18   57 1
    61   18   58 1
    62   19   59 1
    63   20   60 1
    64   21   61 1
    65   21   62 1
    66   22   63 1
    67   22   64 1
    68   24   65 1
    69   24   66 1
    70   24   67 1
    71   25   68 1
    72   26   69 1
    73   26   70 1
    74   27   71 1
    75   27   72 1
    76   29   73 1
    77   29   74 1
    78   29   75 1
@<TRIPOS>MOLECULE
*****
   75    78     0     0     0
SMALL
NO_CHARGES

@<TRIPOS>ATOM
      1 C1          4.9924   -0.7930    0.0000 CT        1 <0>         0.0000
      2 C2          4.9924   -1.6180    0.0000 CT        1 <0>         0.0000
      3 C3          5.7069   -2.0305    0.0000 CT        1 <0>         0.0000
      4 C4          6.4214   -1.6180    0.0000 CT        1 <0>         0.0000
      5 C5          7.1358   -2.0305    0.0000 CT        1 <0>         0.0000
      6 C6          7.8503   -1.6180    0.0000 CT        1 <0>         0.0000
      7 C7          8.5648   -1.2055    0.0000 CT        1 <0>         0.0000
      8 C8          7.4378   -0.9035    0.0000 CT        1 <0>         0.0000
      9 O1          8.2628   -2.3325    0.0000 OH        1 <0>         0.0000
     10 C9          4.2780   -2.0305    0.0000 CT        1 <0>         0.0000
     11 C10         4.1917   -2.8510    0.0000 CT        1 <0>         0.0000
     12 C11         3.3847   -3.0225    0.0000 CT        1 <0>         0.0000
     13 C12         2.9722   -2.3080    0.0000 CT        1 <0>         0.0000
     14 C13         2.1653   -2.1365    0.0000 CT        1 <0>         0.0000
     15 C14         1.6132   -2.7496    0.0000 CT        1 <0>         0.0000
     16 C15         0.8063   -2.5781    0.0000 CM        1 <0>         0.0000
     17 C16         0.5513   -1.7935    0.0000 CM        1 <0>         0.0000
     18 C17        -0.2556   -1.6219    0.0000 CT        1 <0>         0.0000
     19 C18        -0.5106   -0.8373    0.0000 CT        1 <0>         0.0000
     20 O2         -1.3176   -0.6658    0.0000 OH        1 <0>         0.0000
     21 C19         0.0414   -0.2242    0.0000 CT        1 <0>         0.0000
     22 C20         0.8484   -0.3957    0.0000 CT        1 <0>         0.0000
     23 C21         1.1034   -1.1804    0.0000 CT        1 <0>         0.0000
     24 C22         1.6554   -0.5673    0.0000 CT        1 <0>         0.0000
     25 C23         1.9103   -1.3519    0.0000 CT        1 <0>         0.0000
     26 C24         2.4624   -0.7388    0.0000 CT        1 <0>         0.0000
     27 C25         3.2693   -0.9103    0.0000 CT        1 <0>         0.0000
     28 C26         3.5243   -1.6949    0.0000 CT        1 <0>         0.0000
     29 C27         4.1374   -1.1429    0.0000 CT        1 <0>         0.0000
     30 H1          4.9924   -0.7930    0.0000 HC        1 <0>         0.0000
     31 H2          4.9924   -0.7930    0.0000 HC        1 <0>         0.0000
     32 H3          4.9924   -0.7930    0.0000 HC        1 <0>         0.0000
     33 H4          4.9924   -1.6180    0.0000 HC        1 <0>         0.0000
     34 H5          5.7069   -2.0305    0.0000 HC        1 <0>         0.0000
     35 H6          5.7069   -2.0305    0.0000 HC        1 <0>         0.0000
     36 H7          6.4214   -1.6180    0.0000 HC        1 <0>         0.0000
     37 H8          6.4214   -1.6180    0.0000 HC        1 <0>         0.0000
     38 H9          7.1358   -2.0305    0.0000 HC        1 <0>         0.0000
     39 H10         7.1358   -2.0305    0.0000 HC        1 <0>         0.0000
     40 H11         8.5648   -1.2055    0.0000 HC        1 <0>         0.0000
     41 H12         8.5648   -1.2055    0.0000 HC        1 <0>         0.0000
     42 H13         8.5648   -1.2055    0.0000 HC        1 <0>         0.0000
     43 H14         7.4378   -0.9035    0.0000 HC        1 <0>         0.0000
     44 H15         7.4378   -0.9035    0.0000 HC        1 <0>         0.0000
     45 H16         7.4378   -0.9035    0.0000 HC        1 <0>         0.0000
     46 H17         8.2628   -2.3325    0.0000 HO        1 <0>         0.0000
     47 H18         4.2780   -2.0305    0.0000 HC        1 <0>         0.0000
     48 H19         4.1917   -2.8510    0.0000 HC        1 <0>         0.0000
     49 H20         4.1917   -2.8510    0.0000 HC        1 <0>         0.0000
     50 H21         3.3847   -3.0225    0.0000 HC        1 <0>         0.0000
     51 H22         3.3847   -3.0225    0.0000 HC        1 <0>         0.0000
     52 H23         2.9722   -2.3080    0.0000 HC        1 <0>         0.0000
     53 H24         2.1653   -2.1365    0.0000 HC        1 <0>         0.0000
     54 H25         1.6132   -2.7496    0.0000 HC        1 <0>         0.0000
     55 H26         1.6132   -2.7496    0.0000 HC        1 <0>         0.0000
     56 H27         0.8063   -2.5781    0.0000 HA        1 <0>         0.0000
     57 H28        -0.2556   -1.6219    0.0000 HC        1 <0>         0.0000
     58 H29        -0.2556   -1.6219    0.0000 HC        1 <0>         0.0000
     59 H30        -0.5106   -0.8373    0.0000 H1        1 <0>         0.0000
     60 H31        -1.3176   -0.6658    0.0000 HO        1 <0>         0.0000
     61 H32         0.0414   -0.2242    0.0000 HC        1 <0>         0.0000
     62 H33         0.0414   -0.2242    0.0000 HC        1 <0>         0.0000
     63 H34         0.8484   -0.3957    0.0000 HC        1 <0>         0.0000
     64 H35         0.8484   -0.3957    0.0000 HC        1 <0>         0.0000
     65 H36         1.6554   -0.5673    0.0000 HC        1 <0>         0.0000
     66 H37         1.6554   -0.5673    0.0000 HC        1 <0>         0.0000
     67 H38         1.6554   -0.5673    0.0000 HC        1 <0>         0.0000
     68 H39         1.9103   -1.3519    0.0000 HC        1 <0>         0.0000
     69 H40         2.4624   -0.7388    0.0000 HC        1 <0>         0.0000
     70 H41         2.4624   -0.7388    0.0000 HC        1 <0>         0.0000
     71 H42         3.2693   -0.9103    0.0000 HC        1 <0>         0.0000
     72 H43         3.2693   -0.9103    0.0000 HC        1 <0>         0.0000
     73 H44         4.1374   -1.1429    0.0000 HC        1 <0>         0.0000
     74 H45         4.1374   -1.1429    0.0000 HC        1 <0>         0.0000
     75 H46         4.1374   -1.1429    0.0000 HC        1 <0>         0.0000
@<TRIPOS>BOND
     1    1    2 1
     2    2    3 1
     3    3    4 1
     4    4    5 1
     5    5    6 1
     6    6    7 1
     7    6    8 1
     8    6    9 1
     9    2   10 1
    10   10   11 1
    11   11   12 1
    12   12   13 1
    13   13   14 1
    14   14   15 1
    15   15   16 1
    16   16   17 2
    17   17   18 1
    18   18   19 1
    19   19   20 1
    20   19   21 1
    21   21   22 1
    22   22   23 1
    23   17   23 1
    24   23   24 1
    25   23   25 1
    26   14   25 1
    27   25   26 1
    28   26   27 1
    29   27   28 1
    30   10   28 1
    31   13   28 1
    32   28   29 1
    33    1   30 1
    34    1   31 1
    35    1   32 1
    36    2   33 1
    37    3   34 1
    38    3   35 1
    39    4   36 1
    40    4   37 1
    41    5   38 1
    42    5   39 1
    43    7   40 1
    44    7   41 1
    45    7   42 1
    46    8   43 1
    47    8   44 1
    48    8   45 1
    49    9   46 1
    50   10   47 1
    51   11   48 1
    52   11   49 1
    53   12   50 1
    54   12   51 1
    55   13   52 1
    56   14   53 1
    57   15   54 1
    58   15   55 1
    59   16   56 1
    60   18   57 1
    61   18   58 1
    62   19   59 1
    63   20   60 1
    64   21   61 1
    65   21   62 1
    66   22   63 1
    67   22   64 1
    68   24   65 1
    69   24   66 1
    70   24   67 1
    71   25   68 1
    72   26   69 1
    73   26   70 1
    74   27   71 1
    75   27   72 1
    76   29   73 1
    77   29   74 1
    78   29   75 1
@<TRIPOS>MOLECULE
*****
   75    78     0     0     0
SMALL
NO_CHARGES

@<TRIPOS>ATOM
      1 C1          6.9960   -2.0886    0.0000 CT        1 <0>         0.0000
      2 C2          7.7104   -2.5011    0.0000 CT        1 <0>         0.0000
      3 C3          7.7104   -3.3261    0.0000 CT        1 <0>         0.0000
      4 C4          8.4249   -2.0886    0.0000 CT        1 <0>         0.0000
      5 C5          9.1394   -2.5011    0.0000 CT        1 <0>         0.0000
      6 C6          9.8538   -2.0886    0.0000 CT        1 <0>         0.0000
      7 C7         10.5683   -2.5011    0.0000 CT        1 <0>         0.0000
      8 C8         10.5683   -3.3261    0.0000 CT        1 <0>         0.0000
      9 C9         11.2828   -2.0886    0.0000 CT        1 <0>         0.0000
     10 C10        11.3690   -1.2682    0.0000 CT        1 <0>         0.0000
     11 C11        12.1760   -1.0966    0.0000 CT        1 <0>         0.0000
     12 C12        12.5885   -1.8111    0.0000 CT        1 <0>         0.0000
     13 C13        13.3955   -1.9826    0.0000 CT        1 <0>         0.0000
     14 C14        13.9475   -1.3695    0.0000 CT        1 <0>         0.0000
     15 O1         13.6926   -0.5849    0.0000 OH        1 <0>         0.0000
     16 C15        14.7545   -1.5411    0.0000 CM        1 <0>         0.0000
     17 C16        15.0094   -2.3257    0.0000 CM        1 <0>         0.0000
     18 C17        15.8164   -2.4972    0.0000 CT        1 <0>         0.0000
     19 C18        16.0713   -3.2818    0.0000 CT        1 <0>         0.0000
     20 O2         16.8783   -3.4534    0.0000 OH        1 <0>         0.0000
     21 C19        15.5193   -3.8949    0.0000 CT        1 <0>         0.0000
     22 C20        14.7123   -3.7234    0.0000 CT        1 <0>         0.0000
     23 C21        14.4574   -2.9388    0.0000 CT        1 <0>         0.0000
     24 C22        13.9053   -3.5519    0.0000 CT        1 <0>         0.0000
     25 C23        13.6504   -2.7673    0.0000 CT        1 <0>         0.0000
     26 C24        13.0984   -3.3803    0.0000 CT        1 <0>         0.0000
     27 C25        12.2914   -3.2088    0.0000 CT        1 <0>         0.0000
     28 C26        12.0365   -2.4242    0.0000 CT        1 <0>         0.0000
     29 C27        11.4234   -2.9762    0.0000 CT        1 <0>         0.0000
     30 H1          6.9960   -2.0886    0.0000 HC        1 <0>         0.0000
     31 H2          6.9960   -2.0886    0.0000 HC        1 <0>         0.0000
     32 H3          6.9960   -2.0886    0.0000 HC        1 <0>         0.0000
     33 H4          7.7104   -2.5011    0.0000 HC        1 <0>         0.0000
     34 H5          7.7104   -3.3261    0.0000 HC        1 <0>         0.0000
     35 H6          7.7104   -3.3261    0.0000 HC        1 <0>         0.0000
     36 H7          7.7104   -3.3261    0.0000 HC        1 <0>         0.0000
     37 H8          8.4249   -2.0886    0.0000 HC        1 <0>         0.0000
     38 H9          8.4249   -2.0886    0.0000 HC        1 <0>         0.0000
     39 H10         9.1394   -2.5011    0.0000 HC        1 <0>         0.0000
     40 H11         9.1394   -2.5011    0.0000 HC        1 <0>         0.0000
     41 H12         9.8538   -2.0886    0.0000 HC        1 <0>         0.0000
     42 H13         9.8538   -2.0886    0.0000 HC        1 <0>         0.0000
     43 H14        10.5683   -2.5011    0.0000 HC        1 <0>         0.0000
     44 H15        10.5683   -3.3261    0.0000 HC        1 <0>         0.0000
     45 H16        10.5683   -3.3261    0.0000 HC        1 <0>         0.0000
     46 H17        10.5683   -3.3261    0.0000 HC        1 <0>         0.0000
     47 H18        11.2828   -2.0886    0.0000 HC        1 <0>         0.0000
     48 H19        11.3690   -1.2682    0.0000 HC        1 <0>         0.0000
     49 H20        11.3690   -1.2682    0.0000 HC        1 <0>         0.0000
     50 H21        12.1760   -1.0966    0.0000 HC        1 <0>         0.0000
     51 H22        12.1760   -1.0966    0.0000 HC        1 <0>         0.0000
     52 H23        12.5885   -1.8111    0.0000 HC        1 <0>         0.0000
     53 H24        13.3955   -1.9826    0.0000 HC        1 <0>         0.0000
     54 H25        13.9475   -1.3695    0.0000 H1        1 <0>         0.0000
     55 H26        13.6926   -0.5849    0.0000 HO        1 <0>         0.0000
     56 H27        14.7545   -1.5411    0.0000 HA        1 <0>         0.0000
     57 H28        15.8164   -2.4972    0.0000 HC        1 <0>         0.0000
     58 H29        15.8164   -2.4972    0.0000 HC        1 <0>         0.0000
     59 H30        16.0713   -3.2818    0.0000 H1        1 <0>         0.0000
     60 H31        16.8783   -3.4534    0.0000 HO        1 <0>         0.0000
     61 H32        15.5193   -3.8949    0.0000 HC        1 <0>         0.0000
     62 H33        15.5193   -3.8949    0.0000 HC        1 <0>         0.0000
     63 H34        14.7123   -3.7234    0.0000 HC        1 <0>         0.0000
     64 H35        14.7123   -3.7234    0.0000 HC        1 <0>         0.0000
     65 H36        13.9053   -3.5519    0.0000 HC        1 <0>         0.0000
     66 H37        13.9053   -3.5519    0.0000 HC        1 <0>         0.0000
     67 H38        13.9053   -3.5519    0.0000 HC        1 <0>         0.0000
     68 H39        13.6504   -2.7673    0.0000 HC        1 <0>         0.0000
     69 H40        13.0984   -3.3803    0.0000 HC        1 <0>         0.0000
     70 H41        13.0984   -3.3803    0.0000 HC        1 <0>         0.0000
     71 H42        12.2914   -3.2088    0.0000 HC        1 <0>         0.0000
     72 H43        12.2914   -3.2088    0.0000 HC        1 <0>         0.0000
     73 H44        11.4234   -2.9762    0.0000 HC        1 <0>         0.0000
     74 H45        11.4234   -2.9762    0.0000 HC        1 <0>         0.0000
     75 H46        11.4234   -2.9762    0.0000 HC        1 <0>         0.0000
@<TRIPOS>BOND
     1    1    2 1
     2    2    3 1
     3    2    4 1
     4    4    5 1
     5    5    6 1
     6    6    7 1
     7    7    8 1
     8    7    9 1
     9    9   10 1
    10   10   11 1
    11   11   12 1
    12   12   13 1
    13   13   14 1
    14   14   15 1
    15   14   16 1
    16   16   17 2
    17   17   18 1
    18   18   19 1
    19   19   20 1
    20   19   21 1
    21   21   22 1
    22   22   23 1
    23   17   23 1
    24   23   24 1
    25   23   25 1
    26   13   25 1
    27   25   26 1
    28   26   27 1
    29   27   28 1
    30    9   28 1
    31   12   28 1
    32   28   29 1
    33    1   30 1
    34    1   31 1
    35    1   32 1
    36    2   33 1
    37    3   34 1
    38    3   35 1
    39    3   36 1
    40    4   37 1
    41    4   38 1
    42    5   39 1
    43    5   40 1
    44    6   41 1
    45    6   42 1
    46    7   43 1
    47    8   44 1
    48    8   45 1
    49    8   46 1
    50    9   47 1
    51   10   48 1
    52   10   49 1
    53   11   50 1
    54   11   51 1
    55   12   52 1
    56   13   53 1
    57   14   54 1
    58   15   55 1
    59   16   56 1
    60   18   57 1
    61   18   58 1
    62   19   59 1
    63   20   60 1
    64   21   61 1
    65   21   62 1
    66   22   63 1
    67   22   64 1
    68   24   65 1
    69   24   66 1
    70   24   67 1
    71   25   68 1
    72   26   69 1
    73   26   70 1
    74   27   71 1
    75   27   72 1
    76   29   73 1
    77   29   74 1
    78   29   75 1
@<TRIPOS>MOLECULE
*****
   15    14     0     0     0
SMALL
NO_CHARGES

@<TRIPOS>ATOM
      1 C1          1.2375    0.7145    0.0000 CT        1 <0>         0.0000
      2 C2          0.8250    0.0000    0.0000 CM        1 <0>         0.0000
      3 C3          0.0000    0.0000    0.0000 CM        1 <0>         0.0000
      4 C4         -0.4125   -0.7145    0.0000 C         1 <0>         0.0000
      5 O1         -1.2375   -0.7145    0.0000 OH        1 <0>         0.0000
      6 O2          0.0000   -1.4289    0.0000 O         1 <0>         0.0000
      7 C5          1.2375   -0.7145    0.0000 C         1 <0>         0.0000
      8 O3          2.0625   -0.7145    0.0000 OH        1 <0>         0.0000
      9 O4          0.8250   -1.4289    0.0000 O         1 <0>         0.0000
     10 H1          1.2375    0.7145    0.0000 HC        1 <0>         0.0000
     11 H2          1.2375    0.7145    0.0000 HC        1 <0>         0.0000
     12 H3          1.2375    0.7145    0.0000 HC        1 <0>         0.0000
     13 H4          0.0000    0.0000    0.0000 HA        1 <0>         0.0000
     14 H5         -1.2375   -0.7145    0.0000 HO        1 <0>         0.0000
     15 H6          2.0625   -0.7145    0.0000 HO        1 <0>         0.0000
@<TRIPOS>BOND
     1    1    2 1
     2    2    3 2
     3    3    4 1
     4    4    5 1
     5    4    6 2
     6    2    7 1
     7    7    8 1
     8    7    9 2
     9    1   10 1
    10    1   11 1
    11    1   12 1
    12    3   13 1
    13    5   14 1
    14    8   15 1
@<TRIPOS>MOLECULE
*****
  120   120     0     0     0
SMALL
NO_CHARGES

@<TRIPOS>ATOM
      1 C1          3.5724  -11.1375    0.0000 CT        1 <0>         0.0000
      2 C2          4.2868  -11.5500    0.0000 CT        1 <0>         0.0000
      3 C3          5.0013  -11.1375    0.0000 CT        1 <0>         0.0000
      4 C4          5.7158  -11.5500    0.0000 CT        1 <0>         0.0000
      5 C5          6.4302  -11.1375    0.0000 CT        1 <0>         0.0000
      6 C6          7.1447  -11.5500    0.0000 CT        1 <0>         0.0000
      7 C7          7.8592  -11.1375    0.0000 CT        1 <0>         0.0000
      8 C8          8.5737  -11.5500    0.0000 CT        1 <0>         0.0000
      9 C9          9.2881  -11.1375    0.0000 CT        1 <0>         0.0000
     10 C10        10.0026  -11.5500    0.0000 CT        1 <0>         0.0000
     11 C11        10.7171  -11.1375    0.0000 CT        1 <0>         0.0000
     12 C12        11.4315  -11.5500    0.0000 CT        1 <0>         0.0000
     13 C13        12.1460  -11.1375    0.0000 CT        1 <0>         0.0000
     14 C14        12.8605  -11.5500    0.0000 CT        1 <0>         0.0000
     15 C15        13.5749  -11.1375    0.0000 CT        1 <0>         0.0000
     16 C16        14.2894  -11.5500    0.0000 C         1 <0>         0.0000
     17 O1         14.2894  -12.3750    0.0000 O         1 <0>         0.0000
     18 O2         15.0039  -11.1375    0.0000 OS        1 <0>         0.0000
     19 C17        15.7184  -11.5500    0.0000 CT        1 <0>         0.0000
     20 C18        15.7184  -12.3750    0.0000 CT        1 <0>         0.0000
     21 O3         16.4328  -12.7875    0.0000 OS        1 <0>         0.0000
     22 C19        16.4328  -13.6125    0.0000 CT        1 <0>         0.0000
     23 O4         17.1473  -14.0250    0.0000 OS        1 <0>         0.0000
     24 C20        17.1473  -14.8500    0.0000 CT        1 <0>         0.0000
     25 C21        17.8618  -15.2625    0.0000 CT        1 <0>         0.0000
     26 O5         17.8618  -16.0875    0.0000 OH        1 <0>         0.0000
     27 C22        16.4328  -15.2625    0.0000 CT        1 <0>         0.0000
     28 O6         16.4328  -16.0875    0.0000 OH        1 <0>         0.0000
     29 C23        15.7184  -14.8500    0.0000 CT        1 <0>         0.0000
     30 O7         15.0039  -15.2625    0.0000 OH        1 <0>         0.0000
     31 C24        15.7184  -14.0250    0.0000 CT        1 <0>         0.0000
     32 O8         15.0039  -13.6125    0.0000 OH        1 <0>         0.0000
     33 C25        16.4328  -11.1375    0.0000 CT        1 <0>         0.0000
     34 O9         17.1473  -11.5500    0.0000 OS        1 <0>         0.0000
     35 C26        17.8618  -11.1375    0.0000 C         1 <0>         0.0000
     36 O10        17.8618  -10.3125    0.0000 O         1 <0>         0.0000
     37 C27        18.5762  -11.5500    0.0000 CT        1 <0>         0.0000
     38 C28        19.2907  -11.1375    0.0000 CT        1 <0>         0.0000
     39 C29        20.0052  -11.5500    0.0000 CT        1 <0>         0.0000
     40 C30        20.7197  -11.1375    0.0000 CT        1 <0>         0.0000
     41 C31        21.4341  -11.5500    0.0000 CT        1 <0>         0.0000
     42 C32        22.1486  -11.1375    0.0000 CT        1 <0>         0.0000
     43 C33        22.8631  -11.5500    0.0000 CT        1 <0>         0.0000
     44 C34        23.5775  -11.1375    0.0000 CT        1 <0>         0.0000
     45 C35        24.2920  -11.5500    0.0000 CT        1 <0>         0.0000
     46 C36        25.0065  -11.1375    0.0000 CT        1 <0>         0.0000
     47 C37        25.7210  -11.5500    0.0000 CT        1 <0>         0.0000
     48 C38        26.4354  -11.1375    0.0000 CT        1 <0>         0.0000
     49 H1          3.5724  -11.1375    0.0000 HC        1 <0>         0.0000
     50 H2          3.5724  -11.1375    0.0000 HC        1 <0>         0.0000
     51 H3          3.5724  -11.1375    0.0000 HC        1 <0>         0.0000
     52 H4          4.2868  -11.5500    0.0000 HC        1 <0>         0.0000
     53 H5          4.2868  -11.5500    0.0000 HC        1 <0>         0.0000
     54 H6          5.0013  -11.1375    0.0000 HC        1 <0>         0.0000
     55 H7          5.0013  -11.1375    0.0000 HC        1 <0>         0.0000
     56 H8          5.7158  -11.5500    0.0000 HC        1 <0>         0.0000
     57 H9          5.7158  -11.5500    0.0000 HC        1 <0>         0.0000
     58 H10         6.4302  -11.1375    0.0000 HC        1 <0>         0.0000
     59 H11         6.4302  -11.1375    0.0000 HC        1 <0>         0.0000
     60 H12         7.1447  -11.5500    0.0000 HC        1 <0>         0.0000
     61 H13         7.1447  -11.5500    0.0000 HC        1 <0>         0.0000
     62 H14         7.8592  -11.1375    0.0000 HC        1 <0>         0.0000
     63 H15         7.8592  -11.1375    0.0000 HC        1 <0>         0.0000
     64 H16         8.5737  -11.5500    0.0000 HC        1 <0>         0.0000
     65 H17         8.5737  -11.5500    0.0000 HC        1 <0>         0.0000
     66 H18         9.2881  -11.1375    0.0000 HC        1 <0>         0.0000
     67 H19         9.2881  -11.1375    0.0000 HC        1 <0>         0.0000
     68 H20        10.0026  -11.5500    0.0000 HC        1 <0>         0.0000
     69 H21        10.0026  -11.5500    0.0000 HC        1 <0>         0.0000
     70 H22        10.7171  -11.1375    0.0000 HC        1 <0>         0.0000
     71 H23        10.7171  -11.1375    0.0000 HC        1 <0>         0.0000
     72 H24        11.4315  -11.5500    0.0000 HC        1 <0>         0.0000
     73 H25        11.4315  -11.5500    0.0000 HC        1 <0>         0.0000
     74 H26        12.1460  -11.1375    0.0000 HC        1 <0>         0.0000
     75 H27        12.1460  -11.1375    0.0000 HC        1 <0>         0.0000
     76 H28        12.8605  -11.5500    0.0000 HC        1 <0>         0.0000
     77 H29        12.8605  -11.5500    0.0000 HC        1 <0>         0.0000
     78 H30        13.5749  -11.1375    0.0000 HC        1 <0>         0.0000
     79 H31        13.5749  -11.1375    0.0000 HC        1 <0>         0.0000
     80 H32        15.7184  -11.5500    0.0000 H1        1 <0>         0.0000
     81 H33        15.7184  -12.3750    0.0000 H1        1 <0>         0.0000
     82 H34        15.7184  -12.3750    0.0000 H1        1 <0>         0.0000
     83 H35        16.4328  -13.6125    0.0000 H2        1 <0>         0.0000
     84 H36        17.1473  -14.8500    0.0000 H1        1 <0>         0.0000
     85 H37        17.8618  -15.2625    0.0000 H1        1 <0>         0.0000
     86 H38        17.8618  -15.2625    0.0000 H1        1 <0>         0.0000
     87 H39        17.8618  -16.0875    0.0000 HO        1 <0>         0.0000
     88 H40        16.4328  -15.2625    0.0000 H1        1 <0>         0.0000
     89 H41        16.4328  -16.0875    0.0000 HO        1 <0>         0.0000
     90 H42        15.7184  -14.8500    0.0000 H1        1 <0>         0.0000
     91 H43        15.0039  -15.2625    0.0000 HO        1 <0>         0.0000
     92 H44        15.7184  -14.0250    0.0000 H1        1 <0>         0.0000
     93 H45        15.0039  -13.6125    0.0000 HO        1 <0>         0.0000
     94 H46        16.4328  -11.1375    0.0000 H1        1 <0>         0.0000
     95 H47        16.4328  -11.1375    0.0000 H1        1 <0>         0.0000
     96 H48        18.5762  -11.5500    0.0000 HC        1 <0>         0.0000
     97 H49        18.5762  -11.5500    0.0000 HC        1 <0>         0.0000
     98 H50        19.2907  -11.1375    0.0000 HC        1 <0>         0.0000
     99 H51        19.2907  -11.1375    0.0000 HC        1 <0>         0.0000
    100 H52        20.0052  -11.5500    0.0000 HC        1 <0>         0.0000
    101 H53        20.0052  -11.5500    0.0000 HC        1 <0>         0.0000
    102 H54        20.7197  -11.1375    0.0000 HC        1 <0>         0.0000
    103 H55        20.7197  -11.1375    0.0000 HC        1 <0>         0.0000
    104 H56        21.4341  -11.5500    0.0000 HC        1 <0>         0.0000
    105 H57        21.4341  -11.5500    0.0000 HC        1 <0>         0.0000
    106 H58        22.1486  -11.1375    0.0000 HC        1 <0>         0.0000
    107 H59        22.1486  -11.1375    0.0000 HC        1 <0>         0.0000
    108 H60        22.8631  -11.5500    0.0000 HC        1 <0>         0.0000
    109 H61        22.8631  -11.5500    0.0000 HC        1 <0>         0.0000
    110 H62        23.5775  -11.1375    0.0000 HC        1 <0>         0.0000
    111 H63        23.5775  -11.1375    0.0000 HC        1 <0>         0.0000
    112 H64        24.2920  -11.5500    0.0000 HC        1 <0>         0.0000
    113 H65        24.2920  -11.5500    0.0000 HC        1 <0>         0.0000
    114 H66        25.0065  -11.1375    0.0000 HC        1 <0>         0.0000
    115 H67        25.0065  -11.1375    0.0000 HC        1 <0>         0.0000
    116 H68        25.7210  -11.5500    0.0000 HC        1 <0>         0.0000
    117 H69        25.7210  -11.5500    0.0000 HC        1 <0>         0.0000
    118 H70        26.4354  -11.1375    0.0000 HC        1 <0>         0.0000
    119 H71        26.4354  -11.1375    0.0000 HC        1 <0>         0.0000
    120 H72        26.4354  -11.1375    0.0000 HC        1 <0>         0.0000
@<TRIPOS>BOND
     1    1    2 1
     2    2    3 1
     3    3    4 1
     4    4    5 1
     5    5    6 1
     6    6    7 1
     7    7    8 1
     8    8    9 1
     9    9   10 1
    10   10   11 1
    11   11   12 1
    12   12   13 1
    13   13   14 1
    14   14   15 1
    15   15   16 1
    16   16   17 2
    17   16   18 1
    18   18   19 1
    19   19   20 1
    20   20   21 1
    21   21   22 1
    22   22   23 1
    23   23   24 1
    24   24   25 1
    25   25   26 1
    26   24   27 1
    27   27   28 1
    28   27   29 1
    29   29   30 1
    30   29   31 1
    31   22   31 1
    32   31   32 1
    33   19   33 1
    34   33   34 1
    35   34   35 1
    36   35   36 2
    37   35   37 1
    38   37   38 1
    39   38   39 1
    40   39   40 1
    41   40   41 1
    42   41   42 1
    43   42   43 1
    44   43   44 1
    45   44   45 1
    46   45   46 1
    47   46   47 1
    48   47   48 1
    49    1   49 1
    50    1   50 1
    51    1   51 1
    52    2   52 1
    53    2   53 1
    54    3   54 1
    55    3   55 1
    56    4   56 1
    57    4   57 1
    58    5   58 1
    59    5   59 1
    60    6   60 1
    61    6   61 1
    62    7   62 1
    63    7   63 1
    64    8   64 1
    65    8   65 1
    66    9   66 1
    67    9   67 1
    68   10   68 1
    69   10   69 1
    70   11   70 1
    71   11   71 1
    72   12   72 1
    73   12   73 1
    74   13   74 1
    75   13   75 1
    76   14   76 1
    77   14   77 1
    78   15   78 1
    79   15   79 1
    80   19   80 1
    81   20   81 1
    82   20   82 1
    83   22   83 1
    84   24   84 1
    85   25   85 1
    86   25   86 1
    87   26   87 1
    88   27   88 1
    89   28   89 1
    90   29   90 1
    91   30   91 1
    92   31   92 1
    93   32   93 1
    94   33   94 1
    95   33   95 1
    96   37   96 1
    97   37   97 1
    98   38   98 1
    99   38   99 1
   100   39  100 1
   101   39  101 1
   102   40  102 1
   103   40  103 1
   104   41  104 1
   105   41  105 1
   106   42  106 1
   107   42  107 1
   108   43  108 1
   109   43  109 1
   110   44  110 1
   111   44  111 1
   112   45  112 1
   113   45  113 1
   114   46  114 1
   115   46  115 1
   116   47  116 1
   117   47  117 1
   118   48  118 1
   119   48  119 1
   120   48  120 1
@<TRIPOS>MOLECULE
*****
   19    20     0     0     0
SMALL
NO_CHARGES

@<TRIPOS>ATOM
      1 O1          1.4289   -2.4750    0.0000 OH        1 <0>         0.0000
      2 C1          1.4289   -1.6500    0.0000 CA        1 <0>         0.0000
      3 C2          0.7145   -1.2375    0.0000 CA        1 <0>         0.0000
      4 C3          0.7145   -0.4125    0.0000 C         1 <0>         0.0000
      5 O2          0.0000    0.0000    0.0000 O         1 <0>         0.0000
      6 C4          1.4289    0.0000    0.0000 C         1 <0>         0.0000
      7 O3          1.4289    0.8250    0.0000 O         1 <0>         0.0000
      8 C5          2.1434   -0.4125    0.0000 CB        1 <0>         0.0000
      9 C6          2.8579    0.0000    0.0000 CA        1 <0>         0.0000
     10 C7          3.5724   -0.4125    0.0000 CA        1 <0>         0.0000
     11 C8          3.5724   -1.2375    0.0000 CA        1 <0>         0.0000
     12 C9          2.8579   -1.6500    0.0000 CA        1 <0>         0.0000
     13 C10         2.1434   -1.2375    0.0000 CB        1 <0>         0.0000
     14 H1          1.4289   -2.4750    0.0000 HO        1 <0>         0.0000
     15 H2          0.7145   -1.2375    0.0000 HA        1 <0>         0.0000
     16 H3          2.8579    0.0000    0.0000 HA        1 <0>         0.0000
     17 H4          3.5724   -0.4125    0.0000 HA        1 <0>         0.0000
     18 H5          3.5724   -1.2375    0.0000 HA        1 <0>         0.0000
     19 H6          2.8579   -1.6500    0.0000 HA        1 <0>         0.0000
@<TRIPOS>BOND
     1    1    2 1
     2    2    3 2
     3    3    4 1
     4    4    5 2
     5    4    6 1
     6    6    7 2
     7    6    8 1
     8    8    9 ar
     9    9   10 ar
    10   10   11 ar
    11   11   12 ar
    12   12   13 ar
    13    2   13 1
    14    8   13 ar
    15    1   14 1
    16    3   15 1
    17    9   16 1
    18   10   17 1
    19   11   18 1
    20   12   19 1
@<TRIPOS>MOLECULE
*****
   52    51     0     0     0
SMALL
NO_CHARGES

@<TRIPOS>ATOM
      1 C1          5.6645    8.2204    0.0000 CT        1 <0>         0.0000
      2 C2          4.9500    7.8079    0.0000 CT        1 <0>         0.0000
      3 C3          4.9500    6.9829    0.0000 CT        1 <0>         0.0000
      4 C4          4.2355    6.5704    0.0000 CT        1 <0>         0.0000
      5 C5          4.2355    5.7454    0.0000 CT        1 <0>         0.0000
      6 C6          3.5211    5.3329    0.0000 CM        1 <0>         0.0000
      7 C7          3.5211    4.5079    0.0000 CM        1 <0>         0.0000
      8 C8          4.2355    4.0954    0.0000 CM        1 <0>         0.0000
      9 C9          4.2355    3.2704    0.0000 CM        1 <0>         0.0000
     10 C10         4.9500    2.8579    0.0000 CT        1 <0>         0.0000
     11 C11         5.6645    3.2704    0.0000 CT        1 <0>         0.0000
     12 C12         6.3789    2.8579    0.0000 CT        1 <0>         0.0000
     13 C13         7.0934    3.2704    0.0000 CT        1 <0>         0.0000
     14 C14         7.8079    2.8579    0.0000 CT        1 <0>         0.0000
     15 C15         8.5224    3.2704    0.0000 CT        1 <0>         0.0000
     16 C16         9.2368    2.8579    0.0000 CT        1 <0>         0.0000
     17 C17         9.9513    3.2704    0.0000 CT        1 <0>         0.0000
     18 C18        10.6658    2.8579    0.0000 C         1 <0>         0.0000
     19 O1         11.3802    3.2704    0.0000 OH        1 <0>         0.0000
     20 O2         10.6658    2.0329    0.0000 O         1 <0>         0.0000
     21 H1          5.6645    8.2204    0.0000 HC        1 <0>         0.0000
     22 H2          5.6645    8.2204    0.0000 HC        1 <0>         0.0000
     23 H3          5.6645    8.2204    0.0000 HC        1 <0>         0.0000
     24 H4          4.9500    7.8079    0.0000 HC        1 <0>         0.0000
     25 H5          4.9500    7.8079    0.0000 HC        1 <0>         0.0000
     26 H6          4.9500    6.9829    0.0000 HC        1 <0>         0.0000
     27 H7          4.9500    6.9829    0.0000 HC        1 <0>         0.0000
     28 H8          4.2355    6.5704    0.0000 HC        1 <0>         0.0000
     29 H9          4.2355    6.5704    0.0000 HC        1 <0>         0.0000
     30 H10         4.2355    5.7454    0.0000 HC        1 <0>         0.0000
     31 H11         4.2355    5.7454    0.0000 HC        1 <0>         0.0000
     32 H12         3.5211    5.3329    0.0000 HA        1 <0>         0.0000
     33 H13         3.5211    4.5079    0.0000 HA        1 <0>         0.0000
     34 H14         4.2355    4.0954    0.0000 HA        1 <0>         0.0000
     35 H15         4.2355    3.2704    0.0000 HA        1 <0>         0.0000
     36 H16         4.9500    2.8579    0.0000 HC        1 <0>         0.0000
     37 H17         4.9500    2.8579    0.0000 HC        1 <0>         0.0000
     38 H18         5.6645    3.2704    0.0000 HC        1 <0>         0.0000
     39 H19         5.6645    3.2704    0.0000 HC        1 <0>         0.0000
     40 H20         6.3789    2.8579    0.0000 HC        1 <0>         0.0000
     41 H21         6.3789    2.8579    0.0000 HC        1 <0>         0.0000
     42 H22         7.0934    3.2704    0.0000 HC        1 <0>         0.0000
     43 H23         7.0934    3.2704    0.0000 HC        1 <0>         0.0000
     44 H24         7.8079    2.8579    0.0000 HC        1 <0>         0.0000
     45 H25         7.8079    2.8579    0.0000 HC        1 <0>         0.0000
     46 H26         8.5224    3.2704    0.0000 HC        1 <0>         0.0000
     47 H27         8.5224    3.2704    0.0000 HC        1 <0>         0.0000
     48 H28         9.2368    2.8579    0.0000 HC        1 <0>         0.0000
     49 H29         9.2368    2.8579    0.0000 HC        1 <0>         0.0000
     50 H30         9.9513    3.2704    0.0000 HC        1 <0>         0.0000
     51 H31         9.9513    3.2704    0.0000 HC        1 <0>         0.0000
     52 H32        11.3802    3.2704    0.0000 HO        1 <0>         0.0000
@<TRIPOS>BOND
     1    1    2 1
     2    2    3 1
     3    3    4 1
     4    4    5 1
     5    5    6 1
     6    6    7 2
     7    7    8 1
     8    8    9 2
     9    9   10 1
    10   10   11 1
    11   11   12 1
    12   12   13 1
    13   13   14 1
    14   14   15 1
    15   15   16 1
    16   16   17 1
    17   17   18 1
    18   18   19 1
    19   18   20 2
    20    1   21 1
    21    1   22 1
    22    1   23 1
    23    2   24 1
    24    2   25 1
    25    3   26 1
    26    3   27 1
    27    4   28 1
    28    4   29 1
    29    5   30 1
    30    5   31 1
    31    6   32 1
    32    7   33 1
    33    8   34 1
    34    9   35 1
    35   10   36 1
    36   10   37 1
    37   11   38 1
    38   11   39 1
    39   12   40 1
    40   12   41 1
    41   13   42 1
    42   13   43 1
    43   14   44 1
    44   14   45 1
    45   15   46 1
    46   15   47 1
    47   16   48 1
    48   16   49 1
    49   17   50 1
    50   17   51 1
    51   19   52 1
@<TRIPOS>MOLECULE
*****
   50    49     0     0     0
SMALL
NO_CHARGES

@<TRIPOS>ATOM
      1 C1         -0.7658    4.5079    0.0000 CT        1 <0>         0.0000
      2 C2         -0.0513    4.0954    0.0000 CT        1 <0>         0.0000
      3 C3         -0.0513    3.2704    0.0000 CM        1 <0>         0.0000
      4 C4          0.6632    2.8579    0.0000 CM        1 <0>         0.0000
      5 C5          1.3776    3.2704    0.0000 CM        1 <0>         0.0000
      6 C6          2.0921    2.8579    0.0000 CM        1 <0>         0.0000
      7 C7          2.8066    3.2704    0.0000 CM        1 <0>         0.0000
      8 C8          3.5211    2.8579    0.0000 CM        1 <0>         0.0000
      9 C9          4.2355    3.2704    0.0000 CT        1 <0>         0.0000
     10 C10         4.9500    2.8579    0.0000 CT        1 <0>         0.0000
     11 C11         5.6645    3.2704    0.0000 CT        1 <0>         0.0000
     12 C12         6.3789    2.8579    0.0000 CT        1 <0>         0.0000
     13 C13         7.0934    3.2704    0.0000 CT        1 <0>         0.0000
     14 C14         7.8079    2.8579    0.0000 CT        1 <0>         0.0000
     15 C15         8.5224    3.2704    0.0000 CT        1 <0>         0.0000
     16 C16         9.2368    2.8579    0.0000 CT        1 <0>         0.0000
     17 C17         9.9513    3.2704    0.0000 CT        1 <0>         0.0000
     18 C18        10.6658    2.8579    0.0000 C         1 <0>         0.0000
     19 O1         11.3802    3.2704    0.0000 OH        1 <0>         0.0000
     20 O2         10.6658    2.0329    0.0000 O         1 <0>         0.0000
     21 H1         -0.7658    4.5079    0.0000 HC        1 <0>         0.0000
     22 H2         -0.7658    4.5079    0.0000 HC        1 <0>         0.0000
     23 H3         -0.7658    4.5079    0.0000 HC        1 <0>         0.0000
     24 H4         -0.0513    4.0954    0.0000 HC        1 <0>         0.0000
     25 H5         -0.0513    4.0954    0.0000 HC        1 <0>         0.0000
     26 H6         -0.0513    3.2704    0.0000 HA        1 <0>         0.0000
     27 H7          0.6632    2.8579    0.0000 HA        1 <0>         0.0000
     28 H8          1.3776    3.2704    0.0000 HA        1 <0>         0.0000
     29 H9          2.0921    2.8579    0.0000 HA        1 <0>         0.0000
     30 H10         2.8066    3.2704    0.0000 HA        1 <0>         0.0000
     31 H11         3.5211    2.8579    0.0000 HA        1 <0>         0.0000
     32 H12         4.2355    3.2704    0.0000 HC        1 <0>         0.0000
     33 H13         4.2355    3.2704    0.0000 HC        1 <0>         0.0000
     34 H14         4.9500    2.8579    0.0000 HC        1 <0>         0.0000
     35 H15         4.9500    2.8579    0.0000 HC        1 <0>         0.0000
     36 H16         5.6645    3.2704    0.0000 HC        1 <0>         0.0000
     37 H17         5.6645    3.2704    0.0000 HC        1 <0>         0.0000
     38 H18         6.3789    2.8579    0.0000 HC        1 <0>         0.0000
     39 H19         6.3789    2.8579    0.0000 HC        1 <0>         0.0000
     40 H20         7.0934    3.2704    0.0000 HC        1 <0>         0.0000
     41 H21         7.0934    3.2704    0.0000 HC        1 <0>         0.0000
     42 H22         7.8079    2.8579    0.0000 HC        1 <0>         0.0000
     43 H23         7.8079    2.8579    0.0000 HC        1 <0>         0.0000
     44 H24         8.5224    3.2704    0.0000 HC        1 <0>         0.0000
     45 H25         8.5224    3.2704    0.0000 HC        1 <0>         0.0000
     46 H26         9.2368    2.8579    0.0000 HC        1 <0>         0.0000
     47 H27         9.2368    2.8579    0.0000 HC        1 <0>         0.0000
     48 H28         9.9513    3.2704    0.0000 HC        1 <0>         0.0000
     49 H29         9.9513    3.2704    0.0000 HC        1 <0>         0.0000
     50 H30        11.3802    3.2704    0.0000 HO        1 <0>         0.0000
@<TRIPOS>BOND
     1    1    2 1
     2    2    3 1
     3    3    4 2
     4    4    5 1
     5    5    6 2
     6    6    7 1
     7    7    8 2
     8    8    9 1
     9    9   10 1
    10   10   11 1
    11   11   12 1
    12   12   13 1
    13   13   14 1
    14   14   15 1
    15   15   16 1
    16   16   17 1
    17   17   18 1
    18   18   19 1
    19   18   20 2
    20    1   21 1
    21    1   22 1
    22    1   23 1
    23    2   24 1
    24    2   25 1
    25    3   26 1
    26    4   27 1
    27    5   28 1
    28    6   29 1
    29    7   30 1
    30    8   31 1
    31    9   32 1
    32    9   33 1
    33   10   34 1
    34   10   35 1
    35   11   36 1
    36   11   37 1
    37   12   38 1
    38   12   39 1
    39   13   40 1
    40   13   41 1
    41   14   42 1
    42   14   43 1
    43   15   44 1
    44   15   45 1
    45   16   46 1
    46   16   47 1
    47   17   48 1
    48   17   49 1
    49   19   50 1
@<TRIPOS>MOLECULE
*****
   39    38     0     0     0
SMALL
NO_CHARGES

@<TRIPOS>ATOM
      1 C1          5.4730    3.9849    0.0000 CT        1 <0>         0.0000
      2 C2          6.1875    3.5724    0.0000 CT        1 <0>         0.0000
      3 O1          6.1875    2.7474    0.0000 OH        1 <0>         0.0000
      4 C3          6.9020    3.9849    0.0000 CT        1 <0>         0.0000
      5 C4          7.6164    3.5724    0.0000 C         1 <0>         0.0000
      6 O2          7.6164    2.7474    0.0000 O         1 <0>         0.0000
      7 O3          8.3309    3.9849    0.0000 OS        1 <0>         0.0000
      8 C5          9.0454    3.5724    0.0000 CT        1 <0>         0.0000
      9 C6          9.0454    2.7474    0.0000 CT        1 <0>         0.0000
     10 C7          9.7599    3.9849    0.0000 CT        1 <0>         0.0000
     11 C8         10.4743    3.5724    0.0000 C         1 <0>         0.0000
     12 O4         10.4743    2.7474    0.0000 O         1 <0>         0.0000
     13 O5         11.1888    3.9849    0.0000 OS        1 <0>         0.0000
     14 C9         11.9033    3.5724    0.0000 CT        1 <0>         0.0000
     15 C10        11.9033    2.7474    0.0000 CT        1 <0>         0.0000
     16 C11        12.6177    3.9849    0.0000 CT        1 <0>         0.0000
     17 C12        13.3322    3.5724    0.0000 C         1 <0>         0.0000
     18 O6         14.0467    3.9849    0.0000 OH        1 <0>         0.0000
     19 O7         13.3322    2.7474    0.0000 O         1 <0>         0.0000
     20 H1          5.4730    3.9849    0.0000 HC        1 <0>         0.0000
     21 H2          5.4730    3.9849    0.0000 HC        1 <0>         0.0000
     22 H3          5.4730    3.9849    0.0000 HC        1 <0>         0.0000
     23 H4          6.1875    3.5724    0.0000 H1        1 <0>         0.0000
     24 H5          6.1875    2.7474    0.0000 HO        1 <0>         0.0000
     25 H6          6.9020    3.9849    0.0000 HC        1 <0>         0.0000
     26 H7          6.9020    3.9849    0.0000 HC        1 <0>         0.0000
     27 H8          9.0454    3.5724    0.0000 H1        1 <0>         0.0000
     28 H9          9.0454    2.7474    0.0000 HC        1 <0>         0.0000
     29 H10         9.0454    2.7474    0.0000 HC        1 <0>         0.0000
     30 H11         9.0454    2.7474    0.0000 HC        1 <0>         0.0000
     31 H12         9.7599    3.9849    0.0000 HC        1 <0>         0.0000
     32 H13         9.7599    3.9849    0.0000 HC        1 <0>         0.0000
     33 H14        11.9033    3.5724    0.0000 H1        1 <0>         0.0000
     34 H15        11.9033    2.7474    0.0000 HC        1 <0>         0.0000
     35 H16        11.9033    2.7474    0.0000 HC        1 <0>         0.0000
     36 H17        11.9033    2.7474    0.0000 HC        1 <0>         0.0000
     37 H18        12.6177    3.9849    0.0000 HC        1 <0>         0.0000
     38 H19        12.6177    3.9849    0.0000 HC        1 <0>         0.0000
     39 H20        14.0467    3.9849    0.0000 HO        1 <0>         0.0000
@<TRIPOS>BOND
     1    1    2 1
     2    2    3 1
     3    2    4 1
     4    4    5 1
     5    5    6 2
     6    5    7 1
     7    7    8 1
     8    8    9 1
     9    8   10 1
    10   10   11 1
    11   11   12 2
    12   11   13 1
    13   13   14 1
    14   14   15 1
    15   14   16 1
    16   16   17 1
    17   17   18 1
    18   17   19 2
    19    1   20 1
    20    1   21 1
    21    1   22 1
    22    2   23 1
    23    3   24 1
    24    4   25 1
    25    4   26 1
    26    8   27 1
    27    9   28 1
    28    9   29 1
    29    9   30 1
    30   10   31 1
    31   10   32 1
    32   14   33 1
    33   15   34 1
    34   15   35 1
    35   15   36 1
    36   16   37 1
    37   16   38 1
    38   18   39 1
@<TRIPOS>MOLECULE
*****
  147   148     0     0     0
SMALL
NO_CHARGES

@<TRIPOS>ATOM
      1 C1         -2.6179   -5.4559    0.0000 CT        1 <0>         0.0000
      2 C2         -1.8253   -5.2271    0.0000 CT        1 <0>         0.0000
      3 C3         -1.2308   -5.7992    0.0000 CT        1 <0>         0.0000
      4 O1         -1.4289   -6.6000    0.0000 OS        1 <0>         0.0000
      5 C4         -2.2216   -6.8288    0.0000 CT        1 <0>         0.0000
      6 C5         -0.4381   -5.5703    0.0000 CT        1 <0>         0.0000
      7 C6         -0.2400   -4.7695    0.0000 CT        1 <0>         0.0000
      8 C7          0.1563   -6.1424    0.0000 C         1 <0>         0.0000
      9 O2         -0.0418   -6.9432    0.0000 O         1 <0>         0.0000
     10 C8          0.9490   -5.9136    0.0000 CT        1 <0>         0.0000
     11 C9          1.5434   -6.4856    0.0000 CT        1 <0>         0.0000
     12 C10         2.3361   -6.2568    0.0000 CT        1 <0>         0.0000
     13 C11         2.5342   -5.4559    0.0000 CT        1 <0>         0.0000
     14 C12         2.9305   -6.8288    0.0000 CT        1 <0>         0.0000
     15 O3          2.7324   -7.6297    0.0000 OS        1 <0>         0.0000
     16 C13         1.9398   -7.8585    0.0000 CT        1 <0>         0.0000
     17 C14         3.7232   -6.6000    0.0000 CT        1 <0>         0.0000
     18 C15         3.9213   -5.7992    0.0000 CT        1 <0>         0.0000
     19 C16         4.3177   -7.1720    0.0000 CT        1 <0>         0.0000
     20 O4          5.1103   -6.9432    0.0000 OS        1 <0>         0.0000
     21 C17         5.3085   -6.1424    0.0000 C         1 <0>         0.0000
     22 O5          4.7140   -5.5703    0.0000 O         1 <0>         0.0000
     23 C18         6.1011   -5.9136    0.0000 CM        1 <0>         0.0000
     24 C19         6.6956   -6.4856    0.0000 CM        1 <0>         0.0000
     25 C20         6.4974   -7.2864    0.0000 CM        1 <0>         0.0000
     26 C21         7.0919   -7.8585    0.0000 CM        1 <0>         0.0000
     27 C22         7.8845   -7.6297    0.0000 CT        1 <0>         0.0000
     28 C23         6.8937   -8.6593    0.0000 CT        1 <0>         0.0000
     29 C24         7.4882   -9.2314    0.0000 CT        1 <0>         0.0000
     30 C25         7.2900  -10.0322    0.0000 CT        1 <0>         0.0000
     31 C26         7.8845  -10.6042    0.0000 CM        1 <0>         0.0000
     32 C27         8.6771  -10.3754    0.0000 CM        1 <0>         0.0000
     33 C28         9.2716  -10.9475    0.0000 C         1 <0>         0.0000
     34 O6         10.0643  -10.7186    0.0000 O         1 <0>         0.0000
     35 O7          9.0735  -11.7483    0.0000 OS        1 <0>         0.0000
     36 C29         8.2808  -11.9771    0.0000 CT        1 <0>         0.0000
     37 C30         7.6864  -11.4051    0.0000 CT        1 <0>         0.0000
     38 C31         8.0827  -12.7780    0.0000 CT        1 <0>         0.0000
     39 C32         8.6771  -13.3500    0.0000 CT        1 <0>         0.0000
     40 C33         7.2900  -13.0068    0.0000 CT        1 <0>         0.0000
     41 C34         7.0919  -13.8076    0.0000 CT        1 <0>         0.0000
     42 C35         6.2992  -14.0364    0.0000 CT        1 <0>         0.0000
     43 O8          6.1011  -14.8373    0.0000 OS        1 <0>         0.0000
     44 C36         5.3085  -15.0661    0.0000 CT        1 <0>         0.0000
     45 C37         5.7048  -13.4644    0.0000 CM        1 <0>         0.0000
     46 C38         5.9029  -12.6636    0.0000 CM        1 <0>         0.0000
     47 C39         5.3085  -12.0915    0.0000 CT        1 <0>         0.0000
     48 C40         4.5158  -12.3203    0.0000 CT        1 <0>         0.0000
     49 C41         5.5066  -11.2907    0.0000 CT        1 <0>         0.0000
     50 C42         4.9121  -10.7186    0.0000 CT        1 <0>         0.0000
     51 C43         5.1103   -9.9178    0.0000 CT        1 <0>         0.0000
     52 O9          4.3177  -10.1466    0.0000 OS        1 <0>         0.0000
     53 C44         3.7232   -9.5746    0.0000 CT        1 <0>         0.0000
     54 C45         4.5158   -9.3458    0.0000 CM        1 <0>         0.0000
     55 C46         4.7140   -8.5449    0.0000 CM        1 <0>         0.0000
     56 C47         4.1195   -7.9729    0.0000 CT        1 <0>         0.0000
     57 C48         3.3269   -8.2017    0.0000 CT        1 <0>         0.0000
     58 O10         4.7140  -11.5195    0.0000 OS        1 <0>         0.0000
     59 C49         4.1195  -10.9475    0.0000 CT        1 <0>         0.0000
     60 O11         7.8845  -13.5788    0.0000 OS        1 <0>         0.0000
     61 C50         7.6864  -14.3797    0.0000 CT        1 <0>         0.0000
     62 O12         8.2808   -9.0025    0.0000 OS        1 <0>         0.0000
     63 C51         8.8753   -9.5746    0.0000 CT        1 <0>         0.0000
     64 H1         -2.6179   -5.4559    0.0000 HC        1 <0>         0.0000
     65 H2         -2.6179   -5.4559    0.0000 HC        1 <0>         0.0000
     66 H3         -2.6179   -5.4559    0.0000 HC        1 <0>         0.0000
     67 H4         -1.8253   -5.2271    0.0000 HC        1 <0>         0.0000
     68 H5         -1.8253   -5.2271    0.0000 HC        1 <0>         0.0000
     69 H6         -1.2308   -5.7992    0.0000 H1        1 <0>         0.0000
     70 H7         -2.2216   -6.8288    0.0000 H1        1 <0>         0.0000
     71 H8         -2.2216   -6.8288    0.0000 H1        1 <0>         0.0000
     72 H9         -2.2216   -6.8288    0.0000 H1        1 <0>         0.0000
     73 H10        -0.4381   -5.5703    0.0000 HC        1 <0>         0.0000
     74 H11        -0.2400   -4.7695    0.0000 HC        1 <0>         0.0000
     75 H12        -0.2400   -4.7695    0.0000 HC        1 <0>         0.0000
     76 H13        -0.2400   -4.7695    0.0000 HC        1 <0>         0.0000
     77 H14         0.9490   -5.9136    0.0000 HC        1 <0>         0.0000
     78 H15         0.9490   -5.9136    0.0000 HC        1 <0>         0.0000
     79 H16         1.5434   -6.4856    0.0000 HC        1 <0>         0.0000
     80 H17         1.5434   -6.4856    0.0000 HC        1 <0>         0.0000
     81 H18         2.3361   -6.2568    0.0000 HC        1 <0>         0.0000
     82 H19         2.5342   -5.4559    0.0000 HC        1 <0>         0.0000
     83 H20         2.5342   -5.4559    0.0000 HC        1 <0>         0.0000
     84 H21         2.5342   -5.4559    0.0000 HC        1 <0>         0.0000
     85 H22         2.9305   -6.8288    0.0000 H1        1 <0>         0.0000
     86 H23         1.9398   -7.8585    0.0000 H1        1 <0>         0.0000
     87 H24         1.9398   -7.8585    0.0000 H1        1 <0>         0.0000
     88 H25         1.9398   -7.8585    0.0000 H1        1 <0>         0.0000
     89 H26         3.7232   -6.6000    0.0000 HC        1 <0>         0.0000
     90 H27         3.9213   -5.7992    0.0000 HC        1 <0>         0.0000
     91 H28         3.9213   -5.7992    0.0000 HC        1 <0>         0.0000
     92 H29         3.9213   -5.7992    0.0000 HC        1 <0>         0.0000
     93 H30         4.3177   -7.1720    0.0000 H1        1 <0>         0.0000
     94 H31         6.1011   -5.9136    0.0000 HA        1 <0>         0.0000
     95 H32         6.6956   -6.4856    0.0000 HA        1 <0>         0.0000
     96 H33         6.4974   -7.2864    0.0000 HA        1 <0>         0.0000
     97 H34         7.8845   -7.6297    0.0000 HC        1 <0>         0.0000
     98 H35         7.8845   -7.6297    0.0000 HC        1 <0>         0.0000
     99 H36         7.8845   -7.6297    0.0000 HC        1 <0>         0.0000
    100 H37         6.8937   -8.6593    0.0000 HC        1 <0>         0.0000
    101 H38         6.8937   -8.6593    0.0000 HC        1 <0>         0.0000
    102 H39         7.4882   -9.2314    0.0000 H1        1 <0>         0.0000
    103 H40         7.2900  -10.0322    0.0000 HC        1 <0>         0.0000
    104 H41         7.2900  -10.0322    0.0000 HC        1 <0>         0.0000
    105 H42         8.6771  -10.3754    0.0000 HA        1 <0>         0.0000
    106 H43         8.2808  -11.9771    0.0000 H1        1 <0>         0.0000
    107 H44         7.6864  -11.4051    0.0000 HC        1 <0>         0.0000
    108 H45         7.6864  -11.4051    0.0000 HC        1 <0>         0.0000
    109 H46         8.0827  -12.7780    0.0000 HC        1 <0>         0.0000
    110 H47         8.6771  -13.3500    0.0000 HC        1 <0>         0.0000
    111 H48         8.6771  -13.3500    0.0000 HC        1 <0>         0.0000
    112 H49         8.6771  -13.3500    0.0000 HC        1 <0>         0.0000
    113 H50         7.2900  -13.0068    0.0000 H1        1 <0>         0.0000
    114 H51         7.0919  -13.8076    0.0000 HC        1 <0>         0.0000
    115 H52         7.0919  -13.8076    0.0000 HC        1 <0>         0.0000
    116 H53         6.2992  -14.0364    0.0000 H1        1 <0>         0.0000
    117 H54         5.3085  -15.0661    0.0000 H1        1 <0>         0.0000
    118 H55         5.3085  -15.0661    0.0000 H1        1 <0>         0.0000
    119 H56         5.3085  -15.0661    0.0000 H1        1 <0>         0.0000
    120 H57         5.7048  -13.4644    0.0000 HA        1 <0>         0.0000
    121 H58         5.9029  -12.6636    0.0000 HA        1 <0>         0.0000
    122 H59         5.3085  -12.0915    0.0000 HC        1 <0>         0.0000
    123 H60         4.5158  -12.3203    0.0000 HC        1 <0>         0.0000
    124 H61         4.5158  -12.3203    0.0000 HC        1 <0>         0.0000
    125 H62         4.5158  -12.3203    0.0000 HC        1 <0>         0.0000
    126 H63         5.5066  -11.2907    0.0000 H1        1 <0>         0.0000
    127 H64         4.9121  -10.7186    0.0000 HC        1 <0>         0.0000
    128 H65         4.9121  -10.7186    0.0000 HC        1 <0>         0.0000
    129 H66         5.1103   -9.9178    0.0000 H1        1 <0>         0.0000
    130 H67         3.7232   -9.5746    0.0000 H1        1 <0>         0.0000
    131 H68         3.7232   -9.5746    0.0000 H1        1 <0>         0.0000
    132 H69         3.7232   -9.5746    0.0000 H1        1 <0>         0.0000
    133 H70         4.5158   -9.3458    0.0000 HA        1 <0>         0.0000
    134 H71         4.7140   -8.5449    0.0000 HA        1 <0>         0.0000
    135 H72         4.1195   -7.9729    0.0000 HC        1 <0>         0.0000
    136 H73         3.3269   -8.2017    0.0000 HC        1 <0>         0.0000
    137 H74         3.3269   -8.2017    0.0000 HC        1 <0>         0.0000
    138 H75         3.3269   -8.2017    0.0000 HC        1 <0>         0.0000
    139 H76         4.1195  -10.9475    0.0000 H1        1 <0>         0.0000
    140 H77         4.1195  -10.9475    0.0000 H1        1 <0>         0.0000
    141 H78         4.1195  -10.9475    0.0000 H1        1 <0>         0.0000
    142 H79         7.6864  -14.3797    0.0000 H1        1 <0>         0.0000
    143 H80         7.6864  -14.3797    0.0000 H1        1 <0>         0.0000
    144 H81         7.6864  -14.3797    0.0000 H1        1 <0>         0.0000
    145 H82         8.8753   -9.5746    0.0000 H1        1 <0>         0.0000
    146 H83         8.8753   -9.5746    0.0000 H1        1 <0>         0.0000
    147 H84         8.8753   -9.5746    0.0000 H1        1 <0>         0.0000
@<TRIPOS>BOND
     1    1    2 1
     2    2    3 1
     3    3    4 1
     4    4    5 1
     5    3    6 1
     6    6    7 1
     7    6    8 1
     8    8    9 2
     9    8   10 1
    10   10   11 1
    11   11   12 1
    12   12   13 1
    13   12   14 1
    14   14   15 1
    15   15   16 1
    16   14   17 1
    17   17   18 1
    18   17   19 1
    19   19   20 1
    20   20   21 1
    21   21   22 2
    22   21   23 1
    23   23   24 2
    24   24   25 1
    25   25   26 2
    26   26   27 1
    27   26   28 1
    28   28   29 1
    29   29   30 1
    30   30   31 1
    31   31   32 2
    32   32   33 1
    33   33   34 2
    34   33   35 1
    35   35   36 1
    36   36   37 1
    37   31   37 1
    38   36   38 1
    39   38   39 1
    40   38   40 1
    41   40   41 1
    42   41   42 1
    43   42   43 1
    44   43   44 1
    45   42   45 1
    46   45   46 2
    47   46   47 1
    48   47   48 1
    49   47   49 1
    50   49   50 1
    51   50   51 1
    52   51   52 1
    53   52   53 1
    54   51   54 1
    55   54   55 2
    56   55   56 1
    57   19   56 1
    58   56   57 1
    59   49   58 1
    60   58   59 1
    61   40   60 1
    62   60   61 1
    63   29   62 1
    64   62   63 1
    65    1   64 1
    66    1   65 1
    67    1   66 1
    68    2   67 1
    69    2   68 1
    70    3   69 1
    71    5   70 1
    72    5   71 1
    73    5   72 1
    74    6   73 1
    75    7   74 1
    76    7   75 1
    77    7   76 1
    78   10   77 1
    79   10   78 1
    80   11   79 1
    81   11   80 1
    82   12   81 1
    83   13   82 1
    84   13   83 1
    85   13   84 1
    86   14   85 1
    87   16   86 1
    88   16   87 1
    89   16   88 1
    90   17   89 1
    91   18   90 1
    92   18   91 1
    93   18   92 1
    94   19   93 1
    95   23   94 1
    96   24   95 1
    97   25   96 1
    98   27   97 1
    99   27   98 1
   100   27   99 1
   101   28  100 1
   102   28  101 1
   103   29  102 1
   104   30  103 1
   105   30  104 1
   106   32  105 1
   107   36  106 1
   108   37  107 1
   109   37  108 1
   110   38  109 1
   111   39  110 1
   112   39  111 1
   113   39  112 1
   114   40  113 1
   115   41  114 1
   116   41  115 1
   117   42  116 1
   118   44  117 1
   119   44  118 1
   120   44  119 1
   121   45  120 1
   122   46  121 1
   123   47  122 1
   124   48  123 1
   125   48  124 1
   126   48  125 1
   127   49  126 1
   128   50  127 1
   129   50  128 1
   130   51  129 1
   131   53  130 1
   132   53  131 1
   133   53  132 1
   134   54  133 1
   135   55  134 1
   136   56  135 1
   137   57  136 1
   138   57  137 1
   139   57  138 1
   140   59  139 1
   141   59  140 1
   142   59  141 1
   143   61  142 1
   144   61  143 1
   145   61  144 1
   146   63  145 1
   147   63  146 1
   148   63  147 1
@<TRIPOS>MOLECULE
*****
   18    17     0     0     0
SMALL
NO_CHARGES

@<TRIPOS>ATOM
      1 O1          1.7605    1.8414    0.0000 OH        1 <0>         0.0000
      2 C1          2.4750    1.4289    0.0000 CT        1 <0>         0.0000
      3 C2          3.1895    1.8414    0.0000 CT        1 <0>         0.0000
      4 C3          3.9039    1.4289    0.0000 CT        1 <0>         0.0000
      5 C4          4.6184    1.8414    0.0000 CT        1 <0>         0.0000
      6 C5          5.3329    1.4289    0.0000 C         1 <0>         0.0000
      7 O2          6.0474    1.8414    0.0000 OH        1 <0>         0.0000
      8 O3          5.3329    0.6039    0.0000 O         1 <0>         0.0000
      9 H1          1.7605    1.8414    0.0000 HO        1 <0>         0.0000
     10 H2          2.4750    1.4289    0.0000 H1        1 <0>         0.0000
     11 H3          2.4750    1.4289    0.0000 H1        1 <0>         0.0000
     12 H4          3.1895    1.8414    0.0000 HC        1 <0>         0.0000
     13 H5          3.1895    1.8414    0.0000 HC        1 <0>         0.0000
     14 H6          3.9039    1.4289    0.0000 HC        1 <0>         0.0000
     15 H7          3.9039    1.4289    0.0000 HC        1 <0>         0.0000
     16 H8          4.6184    1.8414    0.0000 HC        1 <0>         0.0000
     17 H9          4.6184    1.8414    0.0000 HC        1 <0>         0.0000
     18 H10         6.0474    1.8414    0.0000 HO        1 <0>         0.0000
@<TRIPOS>BOND
     1    1    2 1
     2    2    3 1
     3    3    4 1
     4    4    5 1
     5    5    6 1
     6    6    7 1
     7    6    8 2
     8    1    9 1
     9    2   10 1
    10    2   11 1
    11    3   12 1
    12    3   13 1
    13    4   14 1
    14    4   15 1
    15    5   16 1
    16    5   17 1
    17    7   18 1
@<TRIPOS>MOLECULE
*****
   19    19     0     0     0
SMALL
NO_CHARGES

@<TRIPOS>ATOM
      1 C1          0.0000    2.4750    0.0000 CT        1 <0>         0.0000
      2 C2          0.7145    2.0625    0.0000 CT        1 <0>         0.0000
      3 O1          1.4289    2.4750    0.0000 OH        1 <0>         0.0000
      4 C3          0.7145    1.2375    0.0000 CA        1 <0>         0.0000
      5 C4          1.4289    0.8250    0.0000 CA        1 <0>         0.0000
      6 C5          1.4289    0.0000    0.0000 CA        1 <0>         0.0000
      7 C6          0.7145   -0.4125    0.0000 CA        1 <0>         0.0000
      8 C7          0.0000    0.0000    0.0000 CA        1 <0>         0.0000
      9 C8          0.0000    0.8250    0.0000 CA        1 <0>         0.0000
     10 H1          0.0000    2.4750    0.0000 HC        1 <0>         0.0000
     11 H2          0.0000    2.4750    0.0000 HC        1 <0>         0.0000
     12 H3          0.0000    2.4750    0.0000 HC        1 <0>         0.0000
     13 H4          0.7145    2.0625    0.0000 H1        1 <0>         0.0000
     14 H5          1.4289    2.4750    0.0000 HO        1 <0>         0.0000
     15 H6          1.4289    0.8250    0.0000 HA        1 <0>         0.0000
     16 H7          1.4289    0.0000    0.0000 HA        1 <0>         0.0000
     17 H8          0.7145   -0.4125    0.0000 HA        1 <0>         0.0000
     18 H9          0.0000    0.0000    0.0000 HA        1 <0>         0.0000
     19 H10         0.0000    0.8250    0.0000 HA        1 <0>         0.0000
@<TRIPOS>BOND
     1    1    2 1
     2    2    3 1
     3    2    4 1
     4    4    5 ar
     5    5    6 ar
     6    6    7 ar
     7    7    8 ar
     8    8    9 ar
     9    4    9 ar
    10    1   10 1
    11    1   11 1
    12    1   12 1
    13    2   13 1
    14    3   14 1
    15    5   15 1
    16    6   16 1
    17    7   17 1
    18    8   18 1
    19    9   19 1
@<TRIPOS>MOLECULE
*****
   69    71     0     0     0
SMALL
NO_CHARGES

@<TRIPOS>ATOM
      1 C1         -0.7423    1.7257    0.0000 CT        1 <0>         0.0000
      2 C2         -0.7423    0.9079    0.0000 CT        1 <0>         0.0000
      3 C3          0.0413    1.9836    0.0000 CT        1 <0>         0.0000
      4 C4         -1.4579    0.4941    0.0000 CM        1 <0>         0.0000
      5 C5          1.4628    2.8210    0.0000 C2        1 <0>         0.0000
      6 C6         -1.4579   -0.3383    0.0000 CM        1 <0>         0.0000
      7 C7          2.1784    2.4072    0.0000 C2        1 <0>         0.0000
      8 C8         -2.1784   -1.5797    0.0000 CM        1 <0>         0.0000
      9 C9          0.0413    0.6547    0.0000 CT        1 <0>         0.0000
     10 C10         0.5136    1.3168    0.0000 CT        1 <0>         0.0000
     11 C11        -2.1784   -0.7473    0.0000 CM        1 <0>         0.0000
     12 C12         2.8941    1.9983    0.0000 CT        1 <0>         0.0000
     13 C13        -2.1784   -3.2299    0.0000 CT        1 <0>         0.0000
     14 C14        -2.8891   -2.8210    0.0000 CT        1 <0>         0.0000
     15 C15        -1.4628   -2.8210    0.0000 CT        1 <0>         0.0000
     16 C16        -2.8891   -1.9886    0.0000 CT        1 <0>         0.0000
     17 C17        -1.4628   -1.9886    0.0000 CT        1 <0>         0.0000
     18 C18         0.0316    2.8064    0.0000 CT        1 <0>         0.0000
     19 C19        -1.4579    2.1443    0.0000 CT        1 <0>         0.0000
     20 C20        -0.7423    2.5532    0.0000 CT        1 <0>         0.0000
     21 C21         0.7473    3.2299    0.0000 CT        1 <0>         0.0000
     22 O1          3.6097    2.4072    0.0000 OH        1 <0>         0.0000
     23 O2         -3.6097   -3.2299    0.0000 OH        1 <0>         0.0000
     24 O3         -0.7423   -3.2299    0.0000 OH        1 <0>         0.0000
     25 C22        -2.1784    0.9030    0.0000 CT        1 <0>         0.0000
     26 C23        -2.1736    1.7354    0.0000 CT        1 <0>         0.0000
     27 C24         3.3030    1.2827    0.0000 CT        1 <0>         0.0000
     28 C25         2.4802    1.2827    0.0000 CT        1 <0>         0.0000
     29 C26        -0.6839    3.2154    0.0000 CT        1 <0>         0.0000
     30 H1          0.7569    2.3975    0.0000 HC        1 <0>         0.0000
     31 H2         -0.7423    0.0852    0.0000 HC        1 <0>         0.0000
     32 H3         -1.4579   -0.3383    0.0000 HA        1 <0>         0.0000
     33 H4          0.0413    0.6547    0.0000 HC        1 <0>         0.0000
     34 H5          0.0413    0.6547    0.0000 HC        1 <0>         0.0000
     35 H6          0.5136    1.3168    0.0000 HC        1 <0>         0.0000
     36 H7          0.5136    1.3168    0.0000 HC        1 <0>         0.0000
     37 H8         -2.1784   -0.7473    0.0000 HA        1 <0>         0.0000
     38 H9         -2.1784   -3.2299    0.0000 HC        1 <0>         0.0000
     39 H10        -2.1784   -3.2299    0.0000 HC        1 <0>         0.0000
     40 H11        -2.8891   -2.8210    0.0000 H1        1 <0>         0.0000
     41 H12        -1.4628   -2.8210    0.0000 H1        1 <0>         0.0000
     42 H13        -2.8891   -1.9886    0.0000 HC        1 <0>         0.0000
     43 H14        -2.8891   -1.9886    0.0000 HC        1 <0>         0.0000
     44 H15        -1.4628   -1.9886    0.0000 HC        1 <0>         0.0000
     45 H16        -1.4628   -1.9886    0.0000 HC        1 <0>         0.0000
     46 H17         0.0316    2.8064    0.0000 HC        1 <0>         0.0000
     47 H18        -1.4579    2.1443    0.0000 HC        1 <0>         0.0000
     48 H19        -1.4579    2.1443    0.0000 HC        1 <0>         0.0000
     49 H20        -0.7423    2.5532    0.0000 HC        1 <0>         0.0000
     50 H21        -0.7423    2.5532    0.0000 HC        1 <0>         0.0000
     51 H22        -0.7423    2.5532    0.0000 HC        1 <0>         0.0000
     52 H23         0.7473    3.2299    0.0000 HC        1 <0>         0.0000
     53 H24         0.7473    3.2299    0.0000 HC        1 <0>         0.0000
     54 H25         3.6097    2.4072    0.0000 HO        1 <0>         0.0000
     55 H26        -3.6097   -3.2299    0.0000 HO        1 <0>         0.0000
     56 H27        -0.7423   -3.2299    0.0000 HO        1 <0>         0.0000
     57 H28        -2.1784    0.9030    0.0000 HC        1 <0>         0.0000
     58 H29        -2.1784    0.9030    0.0000 HC        1 <0>         0.0000
     59 H30        -2.1736    1.7354    0.0000 HC        1 <0>         0.0000
     60 H31        -2.1736    1.7354    0.0000 HC        1 <0>         0.0000
     61 H32         3.3030    1.2827    0.0000 HC        1 <0>         0.0000
     62 H33         3.3030    1.2827    0.0000 HC        1 <0>         0.0000
     63 H34         3.3030    1.2827    0.0000 HC        1 <0>         0.0000
     64 H35         2.4802    1.2827    0.0000 HC        1 <0>         0.0000
     65 H36         2.4802    1.2827    0.0000 HC        1 <0>         0.0000
     66 H37         2.4802    1.2827    0.0000 HC        1 <0>         0.0000
     67 H38        -0.6839    3.2154    0.0000 HC        1 <0>         0.0000
     68 H39        -0.6839    3.2154    0.0000 HC        1 <0>         0.0000
     69 H40        -0.6839    3.2154    0.0000 HC        1 <0>         0.0000
@<TRIPOS>BOND
     1    1    2 1
     2    1    3 1
     3    2    4 1
     4    5   21 1
     5    4    6 2
     6    5    7 3
     7    8   11 2
     8    2    9 1
     9    3   10 1
    10    6   11 1
    11    7   12 1
    12   13   15 1
    13   14   16 1
    14   15   17 1
    15    8   16 1
    16    8   17 1
    17    3   18 1
    18    1   19 1
    19    1   20 1
    20   18   21 1
    21   12   22 1
    22   14   23 1
    23   15   24 1
    24   25   26 1
    25   19   26 1
    26   12   27 1
    27   12   28 1
    28   18   29 1
    29    3   30 1
    30    2   31 1
    31    9   10 1
    32    4   25 1
    33   13   14 1
    34    6   32 1
    35    9   33 1
    36    9   34 1
    37   10   35 1
    38   10   36 1
    39   11   37 1
    40   13   38 1
    41   13   39 1
    42   14   40 1
    43   15   41 1
    44   16   42 1
    45   16   43 1
    46   17   44 1
    47   17   45 1
    48   18   46 1
    49   19   47 1
    50   19   48 1
    51   20   49 1
    52   20   50 1
    53   20   51 1
    54   21   52 1
    55   21   53 1
    56   22   54 1
    57   23   55 1
    58   24   56 1
    59   25   57 1
    60   25   58 1
    61   26   59 1
    62   26   60 1
    63   27   61 1
    64   27   62 1
    65   27   63 1
    66   28   64 1
    67   28   65 1
    68   28   66 1
    69   29   67 1
    70   29   68 1
    71   29   69 1
@<TRIPOS>MOLECULE
*****
   54    53     0     0     0
SMALL
NO_CHARGES

@<TRIPOS>ATOM
      1 C1          0.6632    6.9829    0.0000 CT        1 <0>         0.0000
      2 C2          1.3776    6.5704    0.0000 CT        1 <0>         0.0000
      3 C3          1.3776    5.7454    0.0000 CT        1 <0>         0.0000
      4 C4          2.0921    5.3329    0.0000 CT        1 <0>         0.0000
      5 C5          2.0921    4.5079    0.0000 CT        1 <0>         0.0000
      6 C6          2.8066    4.0954    0.0000 CT        1 <0>         0.0000
      7 C7          2.8066    3.2704    0.0000 CM        1 <0>         0.0000
      8 C8          3.5211    2.8579    0.0000 CM        1 <0>         0.0000
      9 C9          4.2355    3.2704    0.0000 CT        1 <0>         0.0000
     10 C10         4.9500    2.8579    0.0000 CT        1 <0>         0.0000
     11 C11         5.6645    3.2704    0.0000 CT        1 <0>         0.0000
     12 C12         6.3789    2.8579    0.0000 CT        1 <0>         0.0000
     13 C13         7.0934    3.2704    0.0000 CT        1 <0>         0.0000
     14 C14         7.8079    2.8579    0.0000 CT        1 <0>         0.0000
     15 C15         8.5224    3.2704    0.0000 CT        1 <0>         0.0000
     16 C16         9.2368    2.8579    0.0000 CT        1 <0>         0.0000
     17 C17         9.9513    3.2704    0.0000 CT        1 <0>         0.0000
     18 C18        10.6658    2.8579    0.0000 C         1 <0>         0.0000
     19 O1         11.3802    3.2704    0.0000 OH        1 <0>         0.0000
     20 O2         10.6658    2.0329    0.0000 O         1 <0>         0.0000
     21 H1          0.6632    6.9829    0.0000 HC        1 <0>         0.0000
     22 H2          0.6632    6.9829    0.0000 HC        1 <0>         0.0000
     23 H3          0.6632    6.9829    0.0000 HC        1 <0>         0.0000
     24 H4          1.3776    6.5704    0.0000 HC        1 <0>         0.0000
     25 H5          1.3776    6.5704    0.0000 HC        1 <0>         0.0000
     26 H6          1.3776    5.7454    0.0000 HC        1 <0>         0.0000
     27 H7          1.3776    5.7454    0.0000 HC        1 <0>         0.0000
     28 H8          2.0921    5.3329    0.0000 HC        1 <0>         0.0000
     29 H9          2.0921    5.3329    0.0000 HC        1 <0>         0.0000
     30 H10         2.0921    4.5079    0.0000 HC        1 <0>         0.0000
     31 H11         2.0921    4.5079    0.0000 HC        1 <0>         0.0000
     32 H12         2.8066    4.0954    0.0000 HC        1 <0>         0.0000
     33 H13         2.8066    4.0954    0.0000 HC        1 <0>         0.0000
     34 H14         2.8066    3.2704    0.0000 HA        1 <0>         0.0000
     35 H15         3.5211    2.8579    0.0000 HA        1 <0>         0.0000
     36 H16         4.2355    3.2704    0.0000 HC        1 <0>         0.0000
     37 H17         4.2355    3.2704    0.0000 HC        1 <0>         0.0000
     38 H18         4.9500    2.8579    0.0000 HC        1 <0>         0.0000
     39 H19         4.9500    2.8579    0.0000 HC        1 <0>         0.0000
     40 H20         5.6645    3.2704    0.0000 HC        1 <0>         0.0000
     41 H21         5.6645    3.2704    0.0000 HC        1 <0>         0.0000
     42 H22         6.3789    2.8579    0.0000 HC        1 <0>         0.0000
     43 H23         6.3789    2.8579    0.0000 HC        1 <0>         0.0000
     44 H24         7.0934    3.2704    0.0000 HC        1 <0>         0.0000
     45 H25         7.0934    3.2704    0.0000 HC        1 <0>         0.0000
     46 H26         7.8079    2.8579    0.0000 HC        1 <0>         0.0000
     47 H27         7.8079    2.8579    0.0000 HC        1 <0>         0.0000
     48 H28         8.5224    3.2704    0.0000 HC        1 <0>         0.0000
     49 H29         8.5224    3.2704    0.0000 HC        1 <0>         0.0000
     50 H30         9.2368    2.8579    0.0000 HC        1 <0>         0.0000
     51 H31         9.2368    2.8579    0.0000 HC        1 <0>         0.0000
     52 H32         9.9513    3.2704    0.0000 HC        1 <0>         0.0000
     53 H33         9.9513    3.2704    0.0000 HC        1 <0>         0.0000
     54 H34        11.3802    3.2704    0.0000 HO        1 <0>         0.0000
@<TRIPOS>BOND
     1    1    2 1
     2    2    3 1
     3    3    4 1
     4    4    5 1
     5    5    6 1
     6    6    7 1
     7    7    8 2
     8    8    9 1
     9    9   10 1
    10   10   11 1
    11   11   12 1
    12   12   13 1
    13   13   14 1
    14   14   15 1
    15   15   16 1
    16   16   17 1
    17   17   18 1
    18   18   19 1
    19   18   20 2
    20    1   21 1
    21    1   22 1
    22    1   23 1
    23    2   24 1
    24    2   25 1
    25    3   26 1
    26    3   27 1
    27    4   28 1
    28    4   29 1
    29    5   30 1
    30    5   31 1
    31    6   32 1
    32    6   33 1
    33    7   34 1
    34    8   35 1
    35    9   36 1
    36    9   37 1
    37   10   38 1
    38   10   39 1
    39   11   40 1
    40   11   41 1
    41   12   42 1
    42   12   43 1
    43   13   44 1
    44   13   45 1
    45   14   46 1
    46   14   47 1
    47   15   48 1
    48   15   49 1
    49   16   50 1
    50   16   51 1
    51   17   52 1
    52   17   53 1
    53   19   54 1
@<TRIPOS>MOLECULE
4816
   26    28     0     0     0
SMALL
NO_CHARGES

@<TRIPOS>ATOM
      1 O1          3.6957    1.4452    0.0000 O         1 <0>         0.0000
      2 O2          3.6957   -1.7230    0.0000 O         1 <0>         0.0000
      3 O3          5.0805    1.4726    0.0000 OH        1 <0>         0.0000
      4 O4          2.3109    1.4726    0.0000 OH        1 <0>         0.0000
      5 C1          4.3817    0.2571    0.0000 CB        1 <0>         0.0000
      6 C2          3.0098    0.2571    0.0000 CB        1 <0>         0.0000
      7 C3          4.3817   -0.5350    0.0000 CB        1 <0>         0.0000
      8 C4          3.0098   -0.5350    0.0000 CB        1 <0>         0.0000
      9 C5          3.6957    0.6531    0.0000 C         1 <0>         0.0000
     10 C6          3.6957   -0.9310    0.0000 C         1 <0>         0.0000
     11 C7          5.0897    0.6806    0.0000 CA        1 <0>         0.0000
     12 C8          2.3018    0.6806    0.0000 CA        1 <0>         0.0000
     13 C9          5.0897   -0.9585    0.0000 CA        1 <0>         0.0000
     14 C10         2.3018   -0.9585    0.0000 CA        1 <0>         0.0000
     15 C11         5.8074    0.2736    0.0000 CA        1 <0>         0.0000
     16 C12         1.5841    0.2736    0.0000 CA        1 <0>         0.0000
     17 C13         5.8074   -0.5514    0.0000 CA        1 <0>         0.0000
     18 C14         1.5841   -0.5514    0.0000 CA        1 <0>         0.0000
     19 H1          5.0805    1.4726    0.0000 HO        1 <0>         0.0000
     20 H2          2.3109    1.4726    0.0000 HO        1 <0>         0.0000
     21 H3          5.0897   -0.9585    0.0000 HA        1 <0>         0.0000
     22 H4          2.3018   -0.9585    0.0000 HA        1 <0>         0.0000
     23 H5          5.8074    0.2736    0.0000 HA        1 <0>         0.0000
     24 H6          1.5841    0.2736    0.0000 HA        1 <0>         0.0000
     25 H7          5.8074   -0.5514    0.0000 HA        1 <0>         0.0000
     26 H8          1.5841   -0.5514    0.0000 HA        1 <0>         0.0000
@<TRIPOS>BOND
     1    1    9 2
     2    2   10 2
     3    3   11 1
     4    4   12 1
     5    5    7 ar
     6    5    9 1
     7    5   11 ar
     8    6    8 ar
     9    6    9 1
    10    6   12 ar
    11    7   10 1
    12    7   13 ar
    13    8   10 1
    14    8   14 ar
    15   11   15 ar
    16   12   16 ar
    17   13   17 ar
    18   14   18 ar
    19   15   17 ar
    20   16   18 ar
    21    3   19 1
    22    4   20 1
    23   13   21 1
    24   14   22 1
    25   15   23 1
    26   16   24 1
    27   17   25 1
    28   18   26 1
@<TRIPOS>MOLECULE
4824
   38    41     0     0     0
SMALL
NO_CHARGES

@<TRIPOS>ATOM
      1 O1          4.3411   -1.2316    0.0000 OS        1 <0>         0.0000
      2 O2          4.1159   -2.6797    0.0000 O         1 <0>         0.0000
      3 O3          7.1421   -0.2284    0.0000 OH        1 <0>         0.0000
      4 O4          2.8453    2.5725    0.0000 OH        1 <0>         0.0000
      5 C1          3.8596   -0.5678    0.0000 CT        1 <0>         0.0000
      6 C2          3.0790   -0.8191    0.0000 CA        1 <0>         0.0000
      7 C3          4.6802   -0.4830    0.0000 CA        1 <0>         0.0000
      8 C4          3.6060    0.2173    0.0000 CA        1 <0>         0.0000
      9 C5          3.0790   -1.6441    0.0000 CA        1 <0>         0.0000
     10 C6          3.8596   -1.8955    0.0000 C         1 <0>         0.0000
     11 C7          2.3645   -0.4066    0.0000 CA        1 <0>         0.0000
     12 C8          5.1640   -1.1512    0.0000 CA        1 <0>         0.0000
     13 C9          4.1591    0.8295    0.0000 CA        1 <0>         0.0000
     14 C10         5.0171    0.2702    0.0000 CA        1 <0>         0.0000
     15 C11         2.7993    0.3902    0.0000 CA        1 <0>         0.0000
     16 C12         2.3645   -2.0566    0.0000 CA        1 <0>         0.0000
     17 C13         1.6500   -0.8191    0.0000 CA        1 <0>         0.0000
     18 C14         1.6500   -1.6441    0.0000 CA        1 <0>         0.0000
     19 C15         5.9846   -1.0664    0.0000 CA        1 <0>         0.0000
     20 C16         3.9055    1.6145    0.0000 CA        1 <0>         0.0000
     21 C17         5.8377    0.3550    0.0000 CA        1 <0>         0.0000
     22 C18         2.5457    1.1753    0.0000 CA        1 <0>         0.0000
     23 C19         6.3215   -0.3133    0.0000 CA        1 <0>         0.0000
     24 C20         3.0989    1.7874    0.0000 CA        1 <0>         0.0000
     25 H1          7.1421   -0.2284    0.0000 HO        1 <0>         0.0000
     26 H2          2.8453    2.5725    0.0000 HO        1 <0>         0.0000
     27 H3          2.3645   -0.4066    0.0000 HA        1 <0>         0.0000
     28 H4          5.1640   -1.1512    0.0000 HA        1 <0>         0.0000
     29 H5          4.1591    0.8295    0.0000 HA        1 <0>         0.0000
     30 H6          5.0171    0.2702    0.0000 HA        1 <0>         0.0000
     31 H7          2.7993    0.3902    0.0000 HA        1 <0>         0.0000
     32 H8          2.3645   -2.0566    0.0000 HA        1 <0>         0.0000
     33 H9          1.6500   -0.8191    0.0000 HA        1 <0>         0.0000
     34 H10         1.6500   -1.6441    0.0000 HA        1 <0>         0.0000
     35 H11         5.9846   -1.0664    0.0000 HA        1 <0>         0.0000
     36 H12         3.9055    1.6145    0.0000 HA        1 <0>         0.0000
     37 H13         5.8377    0.3550    0.0000 HA        1 <0>         0.0000
     38 H14         2.5457    1.1753    0.0000 HA        1 <0>         0.0000
@<TRIPOS>BOND
     1    1    5 1
     2    1   10 1
     3    2   10 2
     4    3   23 1
     5    4   24 1
     6    5    6 1
     7    5    7 1
     8    5    8 1
     9    6    9 ar
    10    6   11 ar
    11    7   12 ar
    12    7   14 ar
    13    8   13 ar
    14    8   15 ar
    15    9   10 1
    16    9   16 ar
    17   11   17 ar
    18   12   19 ar
    19   13   20 ar
    20   14   21 ar
    21   15   22 ar
    22   16   18 ar
    23   17   18 ar
    24   19   23 ar
    25   20   24 ar
    26   21   23 ar
    27   22   24 ar
    28    3   25 1
    29    4   26 1
    30   11   27 1
    31   12   28 1
    32   13   29 1
    33   14   30 1
    34   15   31 1
    35   16   32 1
    36   17   33 1
    37   18   34 1
    38   19   35 1
    39   20   36 1
    40   21   37 1
    41   22   38 1
@<TRIPOS>MOLECULE
4838
   44    45     0     0     0
SMALL
NO_CHARGES

@<TRIPOS>ATOM
      1 O1          3.5220    0.6740    0.0000 OS        1 <0>         0.0000
      2 O2          4.2365   -0.5635    0.0000 O         1 <0>         0.0000
      3 O3          2.0930   -0.1510    0.0000 OH        1 <0>         0.0000
      4 C1          4.9509    2.3241    0.0000 CT        1 <0>         0.0000
      5 C2          5.6655    1.9116    0.0000 CT        1 <0>         0.0000
      6 C3          5.6655    1.0865    0.0000 CT        1 <0>         0.0000
      7 C4          4.2365    1.9116    0.0000 CT        1 <0>         0.0000
      8 C5          4.2365    1.0865    0.0000 CT        1 <0>         0.0000
      9 C6          4.9509    0.6740    0.0000 CT        1 <0>         0.0000
     10 C7          5.3634    3.0385    0.0000 CT        1 <0>         0.0000
     11 C8          4.5384    3.0385    0.0000 CT        1 <0>         0.0000
     12 C9          6.3799    0.6740    0.0000 CT        1 <0>         0.0000
     13 C10         3.5220   -0.1510    0.0000 C         1 <0>         0.0000
     14 C11         2.8075   -0.5635    0.0000 CT        1 <0>         0.0000
     15 C12         2.8075   -1.3885    0.0000 CA        1 <0>         0.0000
     16 C13         2.0930   -1.8010    0.0000 CA        1 <0>         0.0000
     17 C14         3.5220   -1.8010    0.0000 CA        1 <0>         0.0000
     18 C15         2.0930   -2.6260    0.0000 CA        1 <0>         0.0000
     19 C16         3.5220   -2.6260    0.0000 CA        1 <0>         0.0000
     20 C17         2.8075   -3.0385    0.0000 CA        1 <0>         0.0000
     21 H1          2.0930   -0.1510    0.0000 HO        1 <0>         0.0000
     22 H2          5.6655    1.9116    0.0000 HC        1 <0>         0.0000
     23 H3          5.6655    1.9116    0.0000 HC        1 <0>         0.0000
     24 H4          5.6655    1.0865    0.0000 HC        1 <0>         0.0000
     25 H5          4.2365    1.9116    0.0000 HC        1 <0>         0.0000
     26 H6          4.2365    1.9116    0.0000 HC        1 <0>         0.0000
     27 H7          4.2365    1.0865    0.0000 H1        1 <0>         0.0000
     28 H8          4.9509    0.6740    0.0000 HC        1 <0>         0.0000
     29 H9          4.9509    0.6740    0.0000 HC        1 <0>         0.0000
     30 H10         5.3634    3.0385    0.0000 HC        1 <0>         0.0000
     31 H11         5.3634    3.0385    0.0000 HC        1 <0>         0.0000
     32 H12         5.3634    3.0385    0.0000 HC        1 <0>         0.0000
     33 H13         4.5384    3.0385    0.0000 HC        1 <0>         0.0000
     34 H14         4.5384    3.0385    0.0000 HC        1 <0>         0.0000
     35 H15         4.5384    3.0385    0.0000 HC        1 <0>         0.0000
     36 H16         6.3799    0.6740    0.0000 HC        1 <0>         0.0000
     37 H17         6.3799    0.6740    0.0000 HC        1 <0>         0.0000
     38 H18         6.3799    0.6740    0.0000 HC        1 <0>         0.0000
     39 H19         2.8075   -0.5635    0.0000 H1        1 <0>         0.0000
     40 H20         2.0930   -1.8010    0.0000 HA        1 <0>         0.0000
     41 H21         3.5220   -1.8010    0.0000 HA        1 <0>         0.0000
     42 H22         2.0930   -2.6260    0.0000 HA        1 <0>         0.0000
     43 H23         3.5220   -2.6260    0.0000 HA        1 <0>         0.0000
     44 H24         2.8075   -3.0385    0.0000 HA        1 <0>         0.0000
@<TRIPOS>BOND
     1    1    8 1
     2    1   13 1
     3    2   13 2
     4    3   14 1
     5    4    5 1
     6    4    7 1
     7    4   10 1
     8    4   11 1
     9    5    6 1
    10    6    9 1
    11    6   12 1
    12    7    8 1
    13    8    9 1
    14   13   14 1
    15   14   15 1
    16   15   16 ar
    17   15   17 ar
    18   16   18 ar
    19   17   19 ar
    20   18   20 ar
    21   19   20 ar
    22    3   21 1
    23    5   22 1
    24    5   23 1
    25    6   24 1
    26    7   25 1
    27    7   26 1
    28    8   27 1
    29    9   28 1
    30    9   29 1
    31   10   30 1
    32   10   31 1
    33   10   32 1
    34   11   33 1
    35   11   34 1
    36   11   35 1
    37   12   36 1
    38   12   37 1
    39   12   38 1
    40   14   39 1
    41   16   40 1
    42   17   41 1
    43   18   42 1
    44   19   43 1
    45   20   44 1
@<TRIPOS>MOLECULE
*****
   93    96     0     0     0
SMALL
NO_CHARGES

@<TRIPOS>ATOM
      1 O1         17.1582    4.2327    0.0000 O         1 <0>         0.0000
      2 O2         11.6718    0.6788    0.0000 OS        1 <0>         0.0000
      3 O3         10.9622    1.9191    0.0000 O         1 <0>         0.0000
      4 C1         16.1212    2.3721    0.0000 CT        1 <0>         0.0000
      5 C2         16.1212    3.1971    0.0000 CT        1 <0>         0.0000
      6 C3         15.4068    1.9596    0.0000 CT        1 <0>         0.0000
      7 C4         14.6922    2.3721    0.0000 CT        1 <0>         0.0000
      8 C5         15.4068    3.6096    0.0000 CT        1 <0>         0.0000
      9 C6         16.9019    2.1206    0.0000 CT        1 <0>         0.0000
     10 C7         14.6922    3.1971    0.0000 CT        1 <0>         0.0000
     11 C8         15.4200    1.1002    0.0000 CT        1 <0>         0.0000
     12 C9         16.9019    3.4485    0.0000 C         1 <0>         0.0000
     13 C10        17.3833    2.7846    0.0000 CT        1 <0>         0.0000
     14 C11        16.1212    4.0221    0.0000 CT        1 <0>         0.0000
     15 C12        13.9414    1.9539    0.0000 CA        1 <0>         0.0000
     16 C13        14.6791    0.6649    0.0000 CT        1 <0>         0.0000
     17 C14        13.9348    1.0945    0.0000 CA        1 <0>         0.0000
     18 C15        13.1768    2.4193    0.0000 CA        1 <0>         0.0000
     19 C16        13.1631    0.6410    0.0000 CA        1 <0>         0.0000
     20 C17        12.3948    1.9837    0.0000 CA        1 <0>         0.0000
     21 C18        12.3879    1.0886    0.0000 CA        1 <0>         0.0000
     22 C19        10.9589    1.0941    0.0000 C         1 <0>         0.0000
     23 C20        10.2429    0.6844    0.0000 CT        1 <0>         0.0000
     24 C21         9.5300    1.0996    0.0000 CT        1 <0>         0.0000
     25 C22         8.8139    0.6899    0.0000 CT        1 <0>         0.0000
     26 C23         8.1010    1.1051    0.0000 CT        1 <0>         0.0000
     27 C24         7.3850    0.6953    0.0000 CT        1 <0>         0.0000
     28 C25         6.6721    1.1106    0.0000 CT        1 <0>         0.0000
     29 C26         5.9560    0.7009    0.0000 CT        1 <0>         0.0000
     30 C27         3.8046   -1.3534    0.0000 CT        1 <0>         0.0000
     31 C28         3.0885   -1.7631    0.0000 CT        1 <0>         0.0000
     32 C29         3.8078   -0.5284    0.0000 CT        1 <0>         0.0000
     33 C30         3.0853   -2.5882    0.0000 CT        1 <0>         0.0000
     34 C31         4.5238   -0.1186    0.0000 CT        1 <0>         0.0000
     35 C32         5.2431    1.1162    0.0000 CM        1 <0>         0.0000
     36 C33         2.3693   -2.9979    0.0000 CT        1 <0>         0.0000
     37 C34         4.5270    0.7064    0.0000 CM        1 <0>         0.0000
     38 C35         2.3661   -3.8229    0.0000 CT        1 <0>         0.0000
     39 C36         1.6500   -4.2327    0.0000 CT        1 <0>         0.0000
     40 H1         16.1910    1.7157    0.0000 HC        1 <0>         0.0000
     41 H2         15.9808    1.6339    0.0000 HC        1 <0>         0.0000
     42 H3         15.2638    2.7021    0.0000 HC        1 <0>         0.0000
     43 H4         15.4068    3.6096    0.0000 HC        1 <0>         0.0000
     44 H5         15.4068    3.6096    0.0000 HC        1 <0>         0.0000
     45 H6         16.9019    2.1206    0.0000 HC        1 <0>         0.0000
     46 H7         16.9019    2.1206    0.0000 HC        1 <0>         0.0000
     47 H8         14.6922    3.1971    0.0000 HC        1 <0>         0.0000
     48 H9         14.6922    3.1971    0.0000 HC        1 <0>         0.0000
     49 H10        15.4200    1.1002    0.0000 HC        1 <0>         0.0000
     50 H11        15.4200    1.1002    0.0000 HC        1 <0>         0.0000
     51 H12        17.3833    2.7846    0.0000 HC        1 <0>         0.0000
     52 H13        17.3833    2.7846    0.0000 HC        1 <0>         0.0000
     53 H14        16.1212    4.0221    0.0000 HC        1 <0>         0.0000
     54 H15        16.1212    4.0221    0.0000 HC        1 <0>         0.0000
     55 H16        16.1212    4.0221    0.0000 HC        1 <0>         0.0000
     56 H17        14.6791    0.6649    0.0000 HC        1 <0>         0.0000
     57 H18        14.6791    0.6649    0.0000 HC        1 <0>         0.0000
     58 H19        13.1768    2.4193    0.0000 HA        1 <0>         0.0000
     59 H20        13.1631    0.6410    0.0000 HA        1 <0>         0.0000
     60 H21        12.3948    1.9837    0.0000 HA        1 <0>         0.0000
     61 H22        10.2429    0.6844    0.0000 HC        1 <0>         0.0000
     62 H23        10.2429    0.6844    0.0000 HC        1 <0>         0.0000
     63 H24         9.5300    1.0996    0.0000 HC        1 <0>         0.0000
     64 H25         9.5300    1.0996    0.0000 HC        1 <0>         0.0000
     65 H26         8.8139    0.6899    0.0000 HC        1 <0>         0.0000
     66 H27         8.8139    0.6899    0.0000 HC        1 <0>         0.0000
     67 H28         8.1010    1.1051    0.0000 HC        1 <0>         0.0000
     68 H29         8.1010    1.1051    0.0000 HC        1 <0>         0.0000
     69 H30         7.3850    0.6953    0.0000 HC        1 <0>         0.0000
     70 H31         7.3850    0.6953    0.0000 HC        1 <0>         0.0000
     71 H32         6.6721    1.1106    0.0000 HC        1 <0>         0.0000
     72 H33         6.6721    1.1106    0.0000 HC        1 <0>         0.0000
     73 H34         5.9560    0.7009    0.0000 HC        1 <0>         0.0000
     74 H35         5.9560    0.7009    0.0000 HC        1 <0>         0.0000
     75 H36         3.8046   -1.3534    0.0000 HC        1 <0>         0.0000
     76 H37         3.8046   -1.3534    0.0000 HC        1 <0>         0.0000
     77 H38         3.0885   -1.7631    0.0000 HC        1 <0>         0.0000
     78 H39         3.0885   -1.7631    0.0000 HC        1 <0>         0.0000
     79 H40         3.8078   -0.5284    0.0000 HC        1 <0>         0.0000
     80 H41         3.8078   -0.5284    0.0000 HC        1 <0>         0.0000
     81 H42         3.0853   -2.5882    0.0000 HC        1 <0>         0.0000
     82 H43         3.0853   -2.5882    0.0000 HC        1 <0>         0.0000
     83 H44         4.5238   -0.1186    0.0000 HC        1 <0>         0.0000
     84 H45         4.5238   -0.1186    0.0000 HC        1 <0>         0.0000
     85 H46         5.2431    1.1162    0.0000 HA        1 <0>         0.0000
     86 H47         2.3693   -2.9979    0.0000 HC        1 <0>         0.0000
     87 H48         2.3693   -2.9979    0.0000 HC        1 <0>         0.0000
     88 H49         4.5270    0.7064    0.0000 HA        1 <0>         0.0000
     89 H50         2.3661   -3.8229    0.0000 HC        1 <0>         0.0000
     90 H51         2.3661   -3.8229    0.0000 HC        1 <0>         0.0000
     91 H52         1.6500   -4.2327    0.0000 HC        1 <0>         0.0000
     92 H53         1.6500   -4.2327    0.0000 HC        1 <0>         0.0000
     93 H54         1.6500   -4.2327    0.0000 HC        1 <0>         0.0000
@<TRIPOS>BOND
     1    1   12 2
     2    2   21 1
     3    2   22 1
     4    3   22 2
     5    4    5 1
     6    4    6 1
     7    4    9 1
     8    4   40 1
     9    5    8 1
    10    5   12 1
    11    5   14 1
    12    6    7 1
    13    6   11 1
    14    6   41 1
    15    7   10 1
    16    7   15 1
    17    7   42 1
    18    8   10 1
    19    9   13 1
    20   11   16 1
    21   12   13 1
    22   15   17 ar
    23   15   18 ar
    24   16   17 1
    25   17   19 ar
    26   18   20 ar
    27   19   21 ar
    28   20   21 ar
    29   22   23 1
    30   23   24 1
    31   24   25 1
    32   25   26 1
    33   26   27 1
    34   27   28 1
    35   28   29 1
    36   29   35 1
    37   30   31 1
    38   30   32 1
    39   31   33 1
    40   32   34 1
    41   33   36 1
    42   34   37 1
    43   35   37 2
    44   36   38 1
    45   38   39 1
    46    8   43 1
    47    8   44 1
    48    9   45 1
    49    9   46 1
    50   10   47 1
    51   10   48 1
    52   11   49 1
    53   11   50 1
    54   13   51 1
    55   13   52 1
    56   14   53 1
    57   14   54 1
    58   14   55 1
    59   16   56 1
    60   16   57 1
    61   18   58 1
    62   19   59 1
    63   20   60 1
    64   23   61 1
    65   23   62 1
    66   24   63 1
    67   24   64 1
    68   25   65 1
    69   25   66 1
    70   26   67 1
    71   26   68 1
    72   27   69 1
    73   27   70 1
    74   28   71 1
    75   28   72 1
    76   29   73 1
    77   29   74 1
    78   30   75 1
    79   30   76 1
    80   31   77 1
    81   31   78 1
    82   32   79 1
    83   32   80 1
    84   33   81 1
    85   33   82 1
    86   34   83 1
    87   34   84 1
    88   35   85 1
    89   36   86 1
    90   36   87 1
    91   37   88 1
    92   38   89 1
    93   38   90 1
    94   39   91 1
    95   39   92 1
    96   39   93 1
@<TRIPOS>MOLECULE
*****
   53    56     0     0     0
SMALL
NO_CHARGES

@<TRIPOS>ATOM
      1 O1          3.7637    1.8273    0.0000 OS        1 <0>         0.0000
      2 O2          6.2785    0.3490    0.0000 OS        1 <0>         0.0000
      3 O3          2.5060   -0.3702    0.0000 OH        1 <0>         0.0000
      4 O4          3.7408   -1.0897    0.0000 OS        1 <0>         0.0000
      5 O5          3.7495   -2.5500    0.0000 O         1 <0>         0.0000
      6 C1          2.4748    1.0898    0.0000 CT        1 <0>         0.0000
      7 C2          2.9102    0.3490    0.0000 CT        1 <0>         0.0000
      8 C3          2.9045    1.8339    0.0000 CT        1 <0>         0.0000
      9 C4          3.7694    0.3622    0.0000 CA        1 <0>         0.0000
     10 C5          4.1819    1.0766    0.0000 CA        1 <0>         0.0000
     11 C6          5.0068    1.0766    0.0000 CA        1 <0>         0.0000
     12 C7          4.1819   -0.3523    0.0000 CB        1 <0>         0.0000
     13 C8          5.0068   -0.3523    0.0000 CB        1 <0>         0.0000
     14 C9          5.4193    0.3622    0.0000 CA        1 <0>         0.0000
     15 C10         1.6499    1.0866    0.0000 CT        1 <0>         0.0000
     16 C11         6.7138    1.0898    0.0000 CT        1 <0>         0.0000
     17 C12         2.4947    2.5500    0.0000 CT        1 <0>         0.0000
     18 C13         5.4479   -1.0897    0.0000 CA        1 <0>         0.0000
     19 C14         5.4249    1.8273    0.0000 CM        1 <0>         0.0000
     20 C15         6.2842    1.8339    0.0000 CM        1 <0>         0.0000
     21 C16         6.2727   -1.0801    0.0000 CT        1 <0>         0.0000
     22 C17         7.4299    1.4995    0.0000 CT        1 <0>         0.0000
     23 C18         7.4267    0.6746    0.0000 CT        1 <0>         0.0000
     24 C19         5.0240   -1.8372    0.0000 CA        1 <0>         0.0000
     25 C20         4.1647   -1.8372    0.0000 C         1 <0>         0.0000
     26 C21         6.6935   -1.7897    0.0000 CT        1 <0>         0.0000
     27 C22         7.5184   -1.7802    0.0000 CT        1 <0>         0.0000
     28 H1          2.5060   -0.3702    0.0000 HO        1 <0>         0.0000
     29 H2          2.4748    1.0898    0.0000 HC        1 <0>         0.0000
     30 H3          2.9102    0.3490    0.0000 H1        1 <0>         0.0000
     31 H4          2.9045    1.8339    0.0000 H1        1 <0>         0.0000
     32 H5          1.6499    1.0866    0.0000 HC        1 <0>         0.0000
     33 H6          1.6499    1.0866    0.0000 HC        1 <0>         0.0000
     34 H7          1.6499    1.0866    0.0000 HC        1 <0>         0.0000
     35 H8          2.4947    2.5500    0.0000 HC        1 <0>         0.0000
     36 H9          2.4947    2.5500    0.0000 HC        1 <0>         0.0000
     37 H10         2.4947    2.5500    0.0000 HC        1 <0>         0.0000
     38 H11         5.4249    1.8273    0.0000 HA        1 <0>         0.0000
     39 H12         6.2842    1.8339    0.0000 HA        1 <0>         0.0000
     40 H13         6.2727   -1.0801    0.0000 HC        1 <0>         0.0000
     41 H14         6.2727   -1.0801    0.0000 HC        1 <0>         0.0000
     42 H15         7.4299    1.4995    0.0000 HC        1 <0>         0.0000
     43 H16         7.4299    1.4995    0.0000 HC        1 <0>         0.0000
     44 H17         7.4299    1.4995    0.0000 HC        1 <0>         0.0000
     45 H18         7.4267    0.6746    0.0000 HC        1 <0>         0.0000
     46 H19         7.4267    0.6746    0.0000 HC        1 <0>         0.0000
     47 H20         7.4267    0.6746    0.0000 HC        1 <0>         0.0000
     48 H21         5.0240   -1.8372    0.0000 HA        1 <0>         0.0000
     49 H22         6.6935   -1.7897    0.0000 HC        1 <0>         0.0000
     50 H23         6.6935   -1.7897    0.0000 HC        1 <0>         0.0000
     51 H24         7.5184   -1.7802    0.0000 HC        1 <0>         0.0000
     52 H25         7.5184   -1.7802    0.0000 HC        1 <0>         0.0000
     53 H26         7.5184   -1.7802    0.0000 HC        1 <0>         0.0000
@<TRIPOS>BOND
     1    1    8 1
     2    1   10 1
     3    2   14 1
     4    2   16 1
     5    3    7 1
     6    4   12 1
     7    4   25 1
     8    5   25 2
     9    6    7 1
    10    6    8 1
    11    6   15 1
    12    7    9 1
    13    8   17 1
    14    9   10 ar
    15    9   12 ar
    16   10   11 ar
    17   11   14 ar
    18   11   19 1
    19   12   13 ar
    20   13   14 ar
    21   13   18 1
    22   16   20 1
    23   16   22 1
    24   16   23 1
    25   18   21 1
    26   18   24 2
    27   19   20 2
    28   21   26 1
    29   24   25 1
    30   26   27 1
    31    3   28 1
    32    6   29 1
    33    7   30 1
    34    8   31 1
    35   15   32 1
    36   15   33 1
    37   15   34 1
    38   17   35 1
    39   17   36 1
    40   17   37 1
    41   19   38 1
    42   20   39 1
    43   21   40 1
    44   21   41 1
    45   22   42 1
    46   22   43 1
    47   22   44 1
    48   23   45 1
    49   23   46 1
    50   23   47 1
    51   24   48 1
    52   26   49 1
    53   26   50 1
    54   27   51 1
    55   27   52 1
    56   27   53 1
@<TRIPOS>MOLECULE
*****
   61    63     0     0     0
SMALL
NO_CHARGES

@<TRIPOS>ATOM
      1 C1         -2.3571    1.4438    0.0000 CT        1 <0>         0.0000
      2 C2         -3.0716    1.0313    0.0000 CT        1 <0>         0.0000
      3 C3         -3.0716    0.2062    0.0000 CT        1 <0>         0.0000
      4 C4         -2.3571   -0.2063    0.0000 CM        1 <0>         0.0000
      5 C5         -1.6427    0.2062    0.0000 CT        1 <0>         0.0000
      6 C6         -1.6427    1.0313    0.0000 CT        1 <0>         0.0000
      7 C7         -0.8581    1.2862    0.0000 CT        1 <0>         0.0000
      8 C8         -0.8581   -0.0486    0.0000 CT        1 <0>         0.0000
      9 C9         -0.3732    0.6188    0.0000 CT        1 <0>         0.0000
     10 C10        -2.3571   -1.0313    0.0000 CM        1 <0>         0.0000
     11 C11        -3.0570   -1.6795    0.0000 CM        1 <0>         0.0000
     12 C12        -3.0570   -2.5045    0.0000 CM        1 <0>         0.0000
     13 C13        -3.7714   -2.9170    0.0000 CT        1 <0>         0.0000
     14 C14        -3.7714   -3.7420    0.0000 CT        1 <0>         0.0000
     15 C15        -3.0570   -4.1545    0.0000 CM        1 <0>         0.0000
     16 C16        -2.3425   -3.7420    0.0000 CT        1 <0>         0.0000
     17 C17        -2.3425   -2.9170    0.0000 CT        1 <0>         0.0000
     18 C18        -3.0570   -4.9795    0.0000 CM        1 <0>         0.0000
     19 O1         -1.5175   -3.7420    0.0000 OH        1 <0>         0.0000
     20 H1         -4.3548   -4.3254    0.0000 H1        1 <0>         0.0000
     21 H2         -1.9300   -4.4565    0.0000 H1        1 <0>         0.0000
     22 O2         -4.5964   -3.7420    0.0000 OH        1 <0>         0.0000
     23 H3         -1.6427   -0.6188    0.0000 HC        1 <0>         0.0000
     24 H4         -0.0331    1.2862    0.0000 HC        1 <0>         0.0000
     25 C19        -0.6445    2.0831    0.0000 CT        1 <0>         0.0000
     26 C20         0.1524    2.2966    0.0000 CT        1 <0>         0.0000
     27 C21         0.7357    1.7133    0.0000 CT        1 <0>         0.0000
     28 C22        -1.2279    2.6665    0.0000 CT        1 <0>         0.0000
     29 C23        -1.6427    1.8563    0.0000 CT        1 <0>         0.0000
     30 H5         -0.4310    2.8800    0.0000 HC        1 <0>         0.0000
     31 H6         -2.3571    1.4438    0.0000 HC        1 <0>         0.0000
     32 H7         -2.3571    1.4438    0.0000 HC        1 <0>         0.0000
     33 H8         -3.0716    1.0313    0.0000 HC        1 <0>         0.0000
     34 H9         -3.0716    1.0313    0.0000 HC        1 <0>         0.0000
     35 H10        -3.0716    0.2062    0.0000 HC        1 <0>         0.0000
     36 H11        -3.0716    0.2062    0.0000 HC        1 <0>         0.0000
     37 H12        -0.8581   -0.0486    0.0000 HC        1 <0>         0.0000
     38 H13        -0.8581   -0.0486    0.0000 HC        1 <0>         0.0000
     39 H14        -0.3732    0.6188    0.0000 HC        1 <0>         0.0000
     40 H15        -0.3732    0.6188    0.0000 HC        1 <0>         0.0000
     41 H16        -2.3571   -1.0313    0.0000 HA        1 <0>         0.0000
     42 H17        -3.0570   -1.6795    0.0000 HA        1 <0>         0.0000
     43 H18        -3.7714   -2.9170    0.0000 HC        1 <0>         0.0000
     44 H19        -3.7714   -2.9170    0.0000 HC        1 <0>         0.0000
     45 H20        -2.3425   -2.9170    0.0000 HC        1 <0>         0.0000
     46 H21        -2.3425   -2.9170    0.0000 HC        1 <0>         0.0000
     47 H22        -3.0570   -4.9795    0.0000 HA        1 <0>         0.0000
     48 H23        -3.0570   -4.9795    0.0000 HA        1 <0>         0.0000
     49 H24        -1.5175   -3.7420    0.0000 HO        1 <0>         0.0000
     50 H25        -4.5964   -3.7420    0.0000 HO        1 <0>         0.0000
     51 H26         0.1524    2.2966    0.0000 HC        1 <0>         0.0000
     52 H27         0.1524    2.2966    0.0000 HC        1 <0>         0.0000
     53 H28         0.7357    1.7133    0.0000 HC        1 <0>         0.0000
     54 H29         0.7357    1.7133    0.0000 HC        1 <0>         0.0000
     55 H30         0.7357    1.7133    0.0000 HC        1 <0>         0.0000
     56 H31        -1.2279    2.6665    0.0000 HC        1 <0>         0.0000
     57 H32        -1.2279    2.6665    0.0000 HC        1 <0>         0.0000
     58 H33        -1.2279    2.6665    0.0000 HC        1 <0>         0.0000
     59 H34        -1.6427    1.8563    0.0000 HC        1 <0>         0.0000
     60 H35        -1.6427    1.8563    0.0000 HC        1 <0>         0.0000
     61 H36        -1.6427    1.8563    0.0000 HC        1 <0>         0.0000
@<TRIPOS>BOND
     1    1    2 1
     2    1    6 1
     3    2    3 1
     4    3    4 1
     5    4    5 1
     6    6    7 1
     7    5    6 1
     8    5    8 1
     9    7    9 1
    10    8    9 1
    11    4   10 2
    12   10   11 1
    13   11   12 2
    14   12   13 1
    15   12   17 1
    16   13   14 1
    17   14   15 1
    18   15   16 1
    19   16   17 1
    20   15   18 2
    21   16   19 1
    22   14   20 1
    23   16   21 1
    24   14   22 1
    25    5   23 1
    26    7   24 1
    27    7   25 1
    28   25   26 1
    29   26   27 1
    30   25   28 1
    31    6   29 1
    32   25   30 1
    33    1   31 1
    34    1   32 1
    35    2   33 1
    36    2   34 1
    37    3   35 1
    38    3   36 1
    39    8   37 1
    40    8   38 1
    41    9   39 1
    42    9   40 1
    43   10   41 1
    44   11   42 1
    45   13   43 1
    46   13   44 1
    47   17   45 1
    48   17   46 1
    49   18   47 1
    50   18   48 1
    51   19   49 1
    52   22   50 1
    53   26   51 1
    54   26   52 1
    55   27   53 1
    56   27   54 1
    57   27   55 1
    58   28   56 1
    59   28   57 1
    60   28   58 1
    61   29   59 1
    62   29   60 1
    63   29   61 1
@<TRIPOS>MOLECULE
*****
   30    32     0     0     0
SMALL
NO_CHARGES

@<TRIPOS>ATOM
      1 O1          5.6654    1.4295    0.0000 OS        1 <0>         0.0000
      2 O2          8.5777    1.4494    0.0000 OH        1 <0>         0.0000
      3 O3          2.0929   -1.4580    0.0000 OH        1 <0>         0.0000
      4 C1          4.9508    0.1920    0.0000 CM        1 <0>         0.0000
      5 C2          4.9508    1.0170    0.0000 CT        1 <0>         0.0000
      6 C3          6.3798    0.1920    0.0000 CA        1 <0>         0.0000
      7 C4          5.6654   -0.2205    0.0000 CM        1 <0>         0.0000
      8 C5          6.3798    1.0170    0.0000 CA        1 <0>         0.0000
      9 C6          4.2364   -0.2205    0.0000 CA        1 <0>         0.0000
     10 C7          7.1173   -0.2492    0.0000 CA        1 <0>         0.0000
     11 C8          7.1173    1.4580    0.0000 CA        1 <0>         0.0000
     12 C9          3.5219    0.1920    0.0000 CA        1 <0>         0.0000
     13 C10         4.2364   -1.0455    0.0000 CA        1 <0>         0.0000
     14 C11         7.8648    1.0341    0.0000 CA        1 <0>         0.0000
     15 C12         7.8648    0.1748    0.0000 CA        1 <0>         0.0000
     16 C13         2.8075   -0.2205    0.0000 CA        1 <0>         0.0000
     17 C14         3.5219   -1.4580    0.0000 CA        1 <0>         0.0000
     18 C15         2.8075   -1.0455    0.0000 CA        1 <0>         0.0000
     19 H1          8.5777    1.4494    0.0000 HO        1 <0>         0.0000
     20 H2          2.0929   -1.4580    0.0000 HO        1 <0>         0.0000
     21 H3          4.9508    1.0170    0.0000 H1        1 <0>         0.0000
     22 H4          4.9508    1.0170    0.0000 H1        1 <0>         0.0000
     23 H5          5.6654   -0.2205    0.0000 HA        1 <0>         0.0000
     24 H6          7.1173   -0.2492    0.0000 HA        1 <0>         0.0000
     25 H7          7.1173    1.4580    0.0000 HA        1 <0>         0.0000
     26 H8          3.5219    0.1920    0.0000 HA        1 <0>         0.0000
     27 H9          4.2364   -1.0455    0.0000 HA        1 <0>         0.0000
     28 H10         7.8648    0.1748    0.0000 HA        1 <0>         0.0000
     29 H11         2.8075   -0.2205    0.0000 HA        1 <0>         0.0000
     30 H12         3.5219   -1.4580    0.0000 HA        1 <0>         0.0000
@<TRIPOS>BOND
     1    1    5 1
     2    1    8 1
     3    2   14 1
     4    3   18 1
     5    4    5 1
     6    4    7 2
     7    4    9 1
     8    6    7 1
     9    6    8 ar
    10    6   10 ar
    11    8   11 ar
    12    9   12 ar
    13    9   13 ar
    14   10   15 ar
    15   11   14 ar
    16   12   16 ar
    17   13   17 ar
    18   14   15 ar
    19   16   18 ar
    20   17   18 ar
    21    2   19 1
    22    3   20 1
    23    5   21 1
    24    5   22 1
    25    7   23 1
    26   10   24 1
    27   11   25 1
    28   12   26 1
    29   13   27 1
    30   15   28 1
    31   16   29 1
    32   17   30 1
@<TRIPOS>MOLECULE
*****
   24    23     0     0     0
SMALL
NO_CHARGES

@<TRIPOS>ATOM
      1 O1          4.2361   -1.0312    0.0000 OH        1 <0>         0.0000
      2 O2          3.5217    1.0312    0.0000 OH        1 <0>         0.0000
      3 O3          4.9504    1.0312    0.0000 OH        1 <0>         0.0000
      4 O4          2.0928    0.2063    0.0000 OH        1 <0>         0.0000
      5 O5          5.6650   -1.0312    0.0000 O         1 <0>         0.0000
      6 O6          7.0938   -0.2063    0.0000 OH        1 <0>         0.0000
      7 C1          4.2361   -0.2063    0.0000 CT        1 <0>         0.0000
      8 C2          3.5217    0.2063    0.0000 CT        1 <0>         0.0000
      9 C3          4.9504    0.2063    0.0000 CT        1 <0>         0.0000
     10 C4          2.8072   -0.2063    0.0000 CT        1 <0>         0.0000
     11 C5          5.6650   -0.2063    0.0000 C         1 <0>         0.0000
     12 C6          6.3793    0.2063    0.0000 CT        1 <0>         0.0000
     13 H1          4.2361   -1.0312    0.0000 HO        1 <0>         0.0000
     14 H2          3.5217    1.0312    0.0000 HO        1 <0>         0.0000
     15 H3          4.9504    1.0312    0.0000 HO        1 <0>         0.0000
     16 H4          2.0928    0.2063    0.0000 HO        1 <0>         0.0000
     17 H5          7.0938   -0.2063    0.0000 HO        1 <0>         0.0000
     18 H6          4.2361   -0.2063    0.0000 H1        1 <0>         0.0000
     19 H7          3.5217    0.2063    0.0000 H1        1 <0>         0.0000
     20 H8          4.9504    0.2063    0.0000 H1        1 <0>         0.0000
     21 H9          2.8072   -0.2063    0.0000 H1        1 <0>         0.0000
     22 H10         2.8072   -0.2063    0.0000 H1        1 <0>         0.0000
     23 H11         6.3793    0.2063    0.0000 H1        1 <0>         0.0000
     24 H12         6.3793    0.2063    0.0000 H1        1 <0>         0.0000
@<TRIPOS>BOND
     1    1    7 1
     2    2    8 1
     3    3    9 1
     4    4   10 1
     5    5   11 2
     6    6   12 1
     7    7    8 1
     8    7    9 1
     9    8   10 1
    10    9   11 1
    11   11   12 1
    12    1   13 1
    13    2   14 1
    14    3   15 1
    15    4   16 1
    16    6   17 1
    17    7   18 1
    18    8   19 1
    19    9   20 1
    20   10   21 1
    21   10   22 1
    22   12   23 1
    23   12   24 1
@<TRIPOS>MOLECULE
*****
   65    68     0     0     0
SMALL
NO_CHARGES

@<TRIPOS>ATOM
      1 O1          6.3499    0.0304    0.0000 OH        1 <0>         0.0000
      2 O2          4.1341   -0.9774    0.0000 O         1 <0>         0.0000
      3 O3          7.0508   -0.7623    0.0000 OS        1 <0>         0.0000
      4 O4          6.3499    0.8555    0.0000 OH        1 <0>         0.0000
      5 O5          5.6354    2.0930    0.0000 OH        1 <0>         0.0000
      6 O6          7.3454   -2.1606    0.0000 O         1 <0>         0.0000
      7 C1          2.7774    0.4430    0.0000 CJ        1 <0>         0.0000
      8 C2          2.7774   -0.3821    0.0000 CJ        1 <0>         0.0000
      9 C3          2.0625    0.0304    0.0000 CJ        1 <0>         0.0000
     10 C4          3.4920    0.8555    0.0000 CT        1 <0>         0.0000
     11 C5          3.4920   -0.7946    0.0000 CT        1 <0>         0.0000
     12 C6          4.9209   -0.7946    0.0000 CT        1 <0>         0.0000
     13 C7          4.2064   -0.3821    0.0000 CT        1 <0>         0.0000
     14 C8          5.6354   -0.3821    0.0000 CT        1 <0>         0.0000
     15 C9          3.9782   -0.1672    0.0000 C         1 <0>         0.0000
     16 C10         1.6500    0.7449    0.0000 CT        1 <0>         0.0000
     17 C11         1.6500   -0.6840    0.0000 CT        1 <0>         0.0000
     18 C12         4.2064    0.4430    0.0000 CM        1 <0>         0.0000
     19 C13         5.0935   -1.5963    0.0000 CM        1 <0>         0.0000
     20 C14         5.6354    0.4430    0.0000 CT        1 <0>         0.0000
     21 C15         6.2435   -0.9324    0.0000 CT        1 <0>         0.0000
     22 C16         4.9209    0.0304    0.0000 CT        1 <0>         0.0000
     23 C17         4.9209    0.8555    0.0000 CM        1 <0>         0.0000
     24 C18         5.9092   -1.6814    0.0000 CM        1 <0>         0.0000
     25 C19         4.9209    1.6805    0.0000 CT        1 <0>         0.0000
     26 C20         6.3217   -2.3959    0.0000 CT        1 <0>         0.0000
     27 C21         7.6017   -1.3764    0.0000 C         1 <0>         0.0000
     28 C22         8.4090   -1.2063    0.0000 CM        1 <0>         0.0000
     29 C23         8.6653   -0.4220    0.0000 CT        1 <0>         0.0000
     30 C24         8.9600   -1.8203    0.0000 CM        1 <0>         0.0000
     31 C25         8.7037   -2.6045    0.0000 CT        1 <0>         0.0000
     32 H1          2.4474    1.0145    0.0000 HC        1 <0>         0.0000
     33 H2          2.7774   -1.0421    0.0000 HC        1 <0>         0.0000
     34 H3          3.3672    1.5036    0.0000 HC        1 <0>         0.0000
     35 H4          6.3499    0.0304    0.0000 HO        1 <0>         0.0000
     36 H5          6.3499    0.8555    0.0000 HO        1 <0>         0.0000
     37 H6          5.6354    2.0930    0.0000 HO        1 <0>         0.0000
     38 H7          3.4920   -0.7946    0.0000 HC        1 <0>         0.0000
     39 H8          3.4920   -0.7946    0.0000 HC        1 <0>         0.0000
     40 H9          4.2064   -0.3821    0.0000 HC        1 <0>         0.0000
     41 H10         1.6500    0.7449    0.0000 HC        1 <0>         0.0000
     42 H11         1.6500    0.7449    0.0000 HC        1 <0>         0.0000
     43 H12         1.6500    0.7449    0.0000 HC        1 <0>         0.0000
     44 H13         1.6500   -0.6840    0.0000 HC        1 <0>         0.0000
     45 H14         1.6500   -0.6840    0.0000 HC        1 <0>         0.0000
     46 H15         1.6500   -0.6840    0.0000 HC        1 <0>         0.0000
     47 H16         4.2064    0.4430    0.0000 HA        1 <0>         0.0000
     48 H17         5.0935   -1.5963    0.0000 HA        1 <0>         0.0000
     49 H18         5.6354    0.4430    0.0000 H1        1 <0>         0.0000
     50 H19         6.2435   -0.9324    0.0000 H1        1 <0>         0.0000
     51 H20         4.9209    0.0304    0.0000 HC        1 <0>         0.0000
     52 H21         4.9209    0.0304    0.0000 HC        1 <0>         0.0000
     53 H22         4.9209    0.0304    0.0000 HC        1 <0>         0.0000
     54 H23         4.9209    1.6805    0.0000 H1        1 <0>         0.0000
     55 H24         4.9209    1.6805    0.0000 H1        1 <0>         0.0000
     56 H25         6.3217   -2.3959    0.0000 HC        1 <0>         0.0000
     57 H26         6.3217   -2.3959    0.0000 HC        1 <0>         0.0000
     58 H27         6.3217   -2.3959    0.0000 HC        1 <0>         0.0000
     59 H28         8.6653   -0.4220    0.0000 HC        1 <0>         0.0000
     60 H29         8.6653   -0.4220    0.0000 HC        1 <0>         0.0000
     61 H30         8.6653   -0.4220    0.0000 HC        1 <0>         0.0000
     62 H31         8.9600   -1.8203    0.0000 HA        1 <0>         0.0000
     63 H32         8.7037   -2.6045    0.0000 HC        1 <0>         0.0000
     64 H33         8.7037   -2.6045    0.0000 HC        1 <0>         0.0000
     65 H34         8.7037   -2.6045    0.0000 HC        1 <0>         0.0000
@<TRIPOS>BOND
     1    1   14 1
     2    2   15 2
     3    3   21 1
     4    3   27 1
     5    4   20 1
     6    5   25 1
     7    6   27 2
     8    7    8 1
     9    7    9 1
    10    7   10 1
    11    7   32 1
    12    8    9 1
    13    8   11 1
    14    8   33 1
    15    9   16 1
    16    9   17 1
    17   10   15 1
    18   10   18 1
    19   10   34 1
    20   11   13 1
    21   12   13 1
    22   12   14 1
    23   12   15 1
    24   12   19 1
    25   13   22 1
    26   14   20 1
    27   14   21 1
    28   18   23 2
    29   19   24 2
    30   20   23 1
    31   21   24 1
    32   23   25 1
    33   24   26 1
    34   27   28 1
    35   28   29 1
    36   28   30 2
    37   30   31 1
    38    1   35 1
    39    4   36 1
    40    5   37 1
    41   11   38 1
    42   11   39 1
    43   13   40 1
    44   16   41 1
    45   16   42 1
    46   16   43 1
    47   17   44 1
    48   17   45 1
    49   17   46 1
    50   18   47 1
    51   19   48 1
    52   20   49 1
    53   21   50 1
    54   22   51 1
    55   22   52 1
    56   22   53 1
    57   25   54 1
    58   25   55 1
    59   26   56 1
    60   26   57 1
    61   26   58 1
    62   29   59 1
    63   29   60 1
    64   29   61 1
    65   30   62 1
    66   31   63 1
    67   31   64 1
    68   31   65 1
@<TRIPOS>MOLECULE
*****
   60    63     0     0     0
SMALL
NO_CHARGES

@<TRIPOS>ATOM
      1 O1         -3.2371   -1.0083    0.0000 OH        1 <0>         0.0000
      2 O2          1.9205    2.1379    0.0000 O         1 <0>         0.0000
      3 C1          1.2945    0.5323    0.0000 CT        1 <0>         0.0000
      4 C2         -0.9460   -0.5188    0.0000 CT        1 <0>         0.0000
      5 C3         -0.1991   -0.1685    0.0000 CT        1 <0>         0.0000
      6 C4          1.2246   -0.2896    0.0000 CT        1 <0>         0.0000
      7 C5          0.4777   -0.6399    0.0000 CT        1 <0>         0.0000
      8 C6         -1.0159   -1.3410    0.0000 CT        1 <0>         0.0000
      9 C7          2.0981    0.7199    0.0000 CT        1 <0>         0.0000
     10 C8          0.6175    1.0040    0.0000 CT        1 <0>         0.0000
     11 C9         -0.1292    0.6534    0.0000 CT        1 <0>         0.0000
     12 C10         0.4078   -1.4621    0.0000 CT        1 <0>         0.0000
     13 C11         1.9849   -0.6100    0.0000 CT        1 <0>         0.0000
     14 C12        -1.6229   -0.0473    0.0000 CT        1 <0>         0.0000
     15 C13        -0.3390   -1.8125    0.0000 CT        1 <0>         0.0000
     16 C14         2.5246    0.0138    0.0000 CT        1 <0>         0.0000
     17 C15        -1.7628   -1.6915    0.0000 CT        1 <0>         0.0000
     18 C16        -2.4398   -1.2198    0.0000 CT        1 <0>         0.0000
     19 C17         1.4500    1.3428    0.0000 CT        1 <0>         0.0000
     20 C18        -0.8761    0.3031    0.0000 CT        1 <0>         0.0000
     21 C19         2.4185    1.4802    0.0000 C         1 <0>         0.0000
     22 C20        -2.3699   -0.3978    0.0000 CT        1 <0>         0.0000
     23 C21        -2.7867   -1.9684    0.0000 CT        1 <0>         0.0000
     24 C22         3.2371    1.5827    0.0000 CT        1 <0>         0.0000
     25 H1          0.6913    0.1568    0.0000 HC        1 <0>         0.0000
     26 H2          1.2410   -1.1144    0.0000 HC        1 <0>         0.0000
     27 H3         -0.1991   -0.9935    0.0000 HC        1 <0>         0.0000
     28 H4         -1.2295   -2.1379    0.0000 HC        1 <0>         0.0000
     29 H5         -3.2371   -1.0083    0.0000 HO        1 <0>         0.0000
     30 H6          2.0981    0.7199    0.0000 HC        1 <0>         0.0000
     31 H7          0.6175    1.0040    0.0000 HC        1 <0>         0.0000
     32 H8          0.6175    1.0040    0.0000 HC        1 <0>         0.0000
     33 H9         -0.1292    0.6534    0.0000 HC        1 <0>         0.0000
     34 H10        -0.1292    0.6534    0.0000 HC        1 <0>         0.0000
     35 H11         0.4078   -1.4621    0.0000 HC        1 <0>         0.0000
     36 H12         0.4078   -1.4621    0.0000 HC        1 <0>         0.0000
     37 H13         1.9849   -0.6100    0.0000 HC        1 <0>         0.0000
     38 H14         1.9849   -0.6100    0.0000 HC        1 <0>         0.0000
     39 H15        -1.6229   -0.0473    0.0000 HC        1 <0>         0.0000
     40 H16        -1.6229   -0.0473    0.0000 HC        1 <0>         0.0000
     41 H17        -0.3390   -1.8125    0.0000 HC        1 <0>         0.0000
     42 H18        -0.3390   -1.8125    0.0000 HC        1 <0>         0.0000
     43 H19         2.5246    0.0138    0.0000 HC        1 <0>         0.0000
     44 H20         2.5246    0.0138    0.0000 HC        1 <0>         0.0000
     45 H21        -1.7628   -1.6915    0.0000 HC        1 <0>         0.0000
     46 H22        -1.7628   -1.6915    0.0000 HC        1 <0>         0.0000
     47 H23         1.4500    1.3428    0.0000 HC        1 <0>         0.0000
     48 H24         1.4500    1.3428    0.0000 HC        1 <0>         0.0000
     49 H25         1.4500    1.3428    0.0000 HC        1 <0>         0.0000
     50 H26        -0.8761    0.3031    0.0000 HC        1 <0>         0.0000
     51 H27        -0.8761    0.3031    0.0000 HC        1 <0>         0.0000
     52 H28        -0.8761    0.3031    0.0000 HC        1 <0>         0.0000
     53 H29        -2.3699   -0.3978    0.0000 HC        1 <0>         0.0000
     54 H30        -2.3699   -0.3978    0.0000 HC        1 <0>         0.0000
     55 H31        -2.7867   -1.9684    0.0000 HC        1 <0>         0.0000
     56 H32        -2.7867   -1.9684    0.0000 HC        1 <0>         0.0000
     57 H33        -2.7867   -1.9684    0.0000 HC        1 <0>         0.0000
     58 H34         3.2371    1.5827    0.0000 HC        1 <0>         0.0000
     59 H35         3.2371    1.5827    0.0000 HC        1 <0>         0.0000
     60 H36         3.2371    1.5827    0.0000 HC        1 <0>         0.0000
@<TRIPOS>BOND
     1    1   18 1
     2    2   21 2
     3    3    6 1
     4    3    9 1
     5    3   10 1
     6    3   19 1
     7    4    5 1
     8    4    8 1
     9    4   14 1
    10    4   20 1
    11    5    7 1
    12    5   11 1
    13    6    7 1
    14    6   13 1
    15    7   12 1
    16    8   15 1
    17    8   17 1
    18    9   16 1
    19    9   21 1
    20   10   11 1
    21   12   15 1
    22   13   16 1
    23   14   22 1
    24   17   18 1
    25   18   22 1
    26   18   23 1
    27   21   24 1
    28    7   25 1
    29    6   26 1
    30    5   27 1
    31    8   28 1
    32    1   29 1
    33    9   30 1
    34   10   31 1
    35   10   32 1
    36   11   33 1
    37   11   34 1
    38   12   35 1
    39   12   36 1
    40   13   37 1
    41   13   38 1
    42   14   39 1
    43   14   40 1
    44   15   41 1
    45   15   42 1
    46   16   43 1
    47   16   44 1
    48   17   45 1
    49   17   46 1
    50   19   47 1
    51   19   48 1
    52   19   49 1
    53   20   50 1
    54   20   51 1
    55   20   52 1
    56   22   53 1
    57   22   54 1
    58   23   55 1
    59   23   56 1
    60   23   57 1
    61   24   58 1
    62   24   59 1
    63   24   60 1
@<TRIPOS>MOLECULE
*****
   51    50     0     0     0
SMALL
NO_CHARGES

@<TRIPOS>ATOM
      1 O1          7.0944   -0.6740    0.0000 OS        1 <0>         0.0000
      2 O2         12.0958   -0.2615    0.0000 OH        1 <0>         0.0000
      3 O3          2.0930   -0.2615    0.0000 OH        1 <0>         0.0000
      4 O4         11.3814    0.9760    0.0000 O         1 <0>         0.0000
      5 O5          2.8075    0.9760    0.0000 O         1 <0>         0.0000
      6 C1         10.6668   -0.2615    0.0000 CT        1 <0>         0.0000
      7 C2          3.5220   -0.2615    0.0000 CT        1 <0>         0.0000
      8 C3          9.9524   -0.6740    0.0000 CT        1 <0>         0.0000
      9 C4          4.2365   -0.6740    0.0000 CT        1 <0>         0.0000
     10 C5          9.2379   -0.2615    0.0000 CT        1 <0>         0.0000
     11 C6          4.9509   -0.2615    0.0000 CT        1 <0>         0.0000
     12 C7          8.5234   -0.6740    0.0000 CT        1 <0>         0.0000
     13 C8          5.6655   -0.6740    0.0000 CT        1 <0>         0.0000
     14 C9         11.0793   -0.9760    0.0000 CT        1 <0>         0.0000
     15 C10        10.2543    0.4529    0.0000 CT        1 <0>         0.0000
     16 C11         3.1095   -0.9760    0.0000 CT        1 <0>         0.0000
     17 C12         3.9345    0.4529    0.0000 CT        1 <0>         0.0000
     18 C13         7.8089   -0.2615    0.0000 CT        1 <0>         0.0000
     19 C14         6.3799   -0.2615    0.0000 CT        1 <0>         0.0000
     20 C15        11.3814    0.1510    0.0000 C         1 <0>         0.0000
     21 C16         2.8075    0.1510    0.0000 C         1 <0>         0.0000
     22 H1         12.0958   -0.2615    0.0000 HO        1 <0>         0.0000
     23 H2          2.0930   -0.2615    0.0000 HO        1 <0>         0.0000
     24 H3          9.9524   -0.6740    0.0000 HC        1 <0>         0.0000
     25 H4          9.9524   -0.6740    0.0000 HC        1 <0>         0.0000
     26 H5          4.2365   -0.6740    0.0000 HC        1 <0>         0.0000
     27 H6          4.2365   -0.6740    0.0000 HC        1 <0>         0.0000
     28 H7          9.2379   -0.2615    0.0000 HC        1 <0>         0.0000
     29 H8          9.2379   -0.2615    0.0000 HC        1 <0>         0.0000
     30 H9          4.9509   -0.2615    0.0000 HC        1 <0>         0.0000
     31 H10         4.9509   -0.2615    0.0000 HC        1 <0>         0.0000
     32 H11         8.5234   -0.6740    0.0000 HC        1 <0>         0.0000
     33 H12         8.5234   -0.6740    0.0000 HC        1 <0>         0.0000
     34 H13         5.6655   -0.6740    0.0000 HC        1 <0>         0.0000
     35 H14         5.6655   -0.6740    0.0000 HC        1 <0>         0.0000
     36 H15        11.0793   -0.9760    0.0000 HC        1 <0>         0.0000
     37 H16        11.0793   -0.9760    0.0000 HC        1 <0>         0.0000
     38 H17        11.0793   -0.9760    0.0000 HC        1 <0>         0.0000
     39 H18        10.2543    0.4529    0.0000 HC        1 <0>         0.0000
     40 H19        10.2543    0.4529    0.0000 HC        1 <0>         0.0000
     41 H20        10.2543    0.4529    0.0000 HC        1 <0>         0.0000
     42 H21         3.1095   -0.9760    0.0000 HC        1 <0>         0.0000
     43 H22         3.1095   -0.9760    0.0000 HC        1 <0>         0.0000
     44 H23         3.1095   -0.9760    0.0000 HC        1 <0>         0.0000
     45 H24         3.9345    0.4529    0.0000 HC        1 <0>         0.0000
     46 H25         3.9345    0.4529    0.0000 HC        1 <0>         0.0000
     47 H26         3.9345    0.4529    0.0000 HC        1 <0>         0.0000
     48 H27         7.8089   -0.2615    0.0000 H1        1 <0>         0.0000
     49 H28         7.8089   -0.2615    0.0000 H1        1 <0>         0.0000
     50 H29         6.3799   -0.2615    0.0000 H1        1 <0>         0.0000
     51 H30         6.3799   -0.2615    0.0000 H1        1 <0>         0.0000
@<TRIPOS>BOND
     1    1   18 1
     2    1   19 1
     3    2   20 1
     4    3   21 1
     5    4   20 2
     6    5   21 2
     7    6    8 1
     8    6   14 1
     9    6   15 1
    10    6   20 1
    11    7    9 1
    12    7   16 1
    13    7   17 1
    14    7   21 1
    15    8   10 1
    16    9   11 1
    17   10   12 1
    18   11   13 1
    19   12   18 1
    20   13   19 1
    21    2   22 1
    22    3   23 1
    23    8   24 1
    24    8   25 1
    25    9   26 1
    26    9   27 1
    27   10   28 1
    28   10   29 1
    29   11   30 1
    30   11   31 1
    31   12   32 1
    32   12   33 1
    33   13   34 1
    34   13   35 1
    35   14   36 1
    36   14   37 1
    37   14   38 1
    38   15   39 1
    39   15   40 1
    40   15   41 1
    41   16   42 1
    42   16   43 1
    43   16   44 1
    44   17   45 1
    45   17   46 1
    46   17   47 1
    47   18   48 1
    48   18   49 1
    49   19   50 1
    50   19   51 1
@<TRIPOS>MOLECULE
*****
   55    54     0     0     0
SMALL
NO_CHARGES

@<TRIPOS>ATOM
      1 O1          1.6500    2.5246    0.0000 OS        1 <0>         0.0000
      2 O2          3.0791    2.5246    0.0000 O         1 <0>         0.0000
      3 C1          3.0791    0.8745    0.0000 CT        1 <0>         0.0000
      4 C2          3.0791    0.0495    0.0000 CT        1 <0>         0.0000
      5 C3          2.3645    1.2870    0.0000 CT        1 <0>         0.0000
      6 C4          2.3645   -0.3630    0.0000 CM        1 <0>         0.0000
      7 C5          2.3645   -1.1880    0.0000 CM        1 <0>         0.0000
      8 C6          3.0791   -1.6005    0.0000 CT        1 <0>         0.0000
      9 C7          2.3645    2.1120    0.0000 C         1 <0>         0.0000
     10 C8          3.0791   -2.4256    0.0000 CM        1 <0>         0.0000
     11 C9          4.5080   -2.4256    0.0000 CT        1 <0>         0.0000
     12 C10         3.7935   -2.8381    0.0000 CM        1 <0>         0.0000
     13 C11         5.9370   -1.6005    0.0000 CT        1 <0>         0.0000
     14 C12         5.2224   -2.8381    0.0000 CM        1 <0>         0.0000
     15 C13         5.9370   -2.4256    0.0000 CM        1 <0>         0.0000
     16 C14         5.9370    0.0495    0.0000 CT        1 <0>         0.0000
     17 C15         6.6515   -1.1880    0.0000 CM        1 <0>         0.0000
     18 C16         6.6515   -0.3630    0.0000 CM        1 <0>         0.0000
     19 C17         5.9370    0.8745    0.0000 CM        1 <0>         0.0000
     20 C18         4.5080    0.8745    0.0000 CT        1 <0>         0.0000
     21 C19         5.2224    1.2870    0.0000 CM        1 <0>         0.0000
     22 C20         3.7935    1.2870    0.0000 CT        1 <0>         0.0000
     23 C21         1.6500    3.3496    0.0000 CT        1 <0>         0.0000
     24 H1          3.0791    0.8745    0.0000 HC        1 <0>         0.0000
     25 H2          3.0791    0.8745    0.0000 HC        1 <0>         0.0000
     26 H3          3.0791    0.0495    0.0000 HC        1 <0>         0.0000
     27 H4          3.0791    0.0495    0.0000 HC        1 <0>         0.0000
     28 H5          2.3645    1.2870    0.0000 HC        1 <0>         0.0000
     29 H6          2.3645    1.2870    0.0000 HC        1 <0>         0.0000
     30 H7          2.3645   -0.3630    0.0000 HA        1 <0>         0.0000
     31 H8          2.3645   -1.1880    0.0000 HA        1 <0>         0.0000
     32 H9          3.0791   -1.6005    0.0000 HC        1 <0>         0.0000
     33 H10         3.0791   -1.6005    0.0000 HC        1 <0>         0.0000
     34 H11         3.0791   -2.4256    0.0000 HA        1 <0>         0.0000
     35 H12         4.5080   -2.4256    0.0000 HC        1 <0>         0.0000
     36 H13         4.5080   -2.4256    0.0000 HC        1 <0>         0.0000
     37 H14         3.7935   -2.8381    0.0000 HA        1 <0>         0.0000
     38 H15         5.9370   -1.6005    0.0000 HC        1 <0>         0.0000
     39 H16         5.9370   -1.6005    0.0000 HC        1 <0>         0.0000
     40 H17         5.2224   -2.8381    0.0000 HA        1 <0>         0.0000
     41 H18         5.9370   -2.4256    0.0000 HA        1 <0>         0.0000
     42 H19         5.9370    0.0495    0.0000 HC        1 <0>         0.0000
     43 H20         5.9370    0.0495    0.0000 HC        1 <0>         0.0000
     44 H21         6.6515   -1.1880    0.0000 HA        1 <0>         0.0000
     45 H22         6.6515   -0.3630    0.0000 HA        1 <0>         0.0000
     46 H23         5.9370    0.8745    0.0000 HA        1 <0>         0.0000
     47 H24         4.5080    0.8745    0.0000 HC        1 <0>         0.0000
     48 H25         4.5080    0.8745    0.0000 HC        1 <0>         0.0000
     49 H26         5.2224    1.2870    0.0000 HA        1 <0>         0.0000
     50 H27         3.7935    1.2870    0.0000 HC        1 <0>         0.0000
     51 H28         3.7935    1.2870    0.0000 HC        1 <0>         0.0000
     52 H29         3.7935    1.2870    0.0000 HC        1 <0>         0.0000
     53 H30         1.6500    3.3496    0.0000 H1        1 <0>         0.0000
     54 H31         1.6500    3.3496    0.0000 H1        1 <0>         0.0000
     55 H32         1.6500    3.3496    0.0000 H1        1 <0>         0.0000
@<TRIPOS>BOND
     1    1    9 1
     2    1   23 1
     3    2    9 2
     4    3    4 1
     5    3    5 1
     6    4    6 1
     7    5    9 1
     8    6    7 2
     9    7    8 1
    10    8   10 1
    11   10   12 2
    12   11   12 1
    13   11   14 1
    14   13   15 1
    15   13   17 1
    16   14   15 2
    17   16   18 1
    18   16   19 1
    19   17   18 2
    20   19   21 2
    21   20   21 1
    22   20   22 1
    23    3   24 1
    24    3   25 1
    25    4   26 1
    26    4   27 1
    27    5   28 1
    28    5   29 1
    29    6   30 1
    30    7   31 1
    31    8   32 1
    32    8   33 1
    33   10   34 1
    34   11   35 1
    35   11   36 1
    36   12   37 1
    37   13   38 1
    38   13   39 1
    39   14   40 1
    40   15   41 1
    41   16   42 1
    42   16   43 1
    43   17   44 1
    44   18   45 1
    45   19   46 1
    46   20   47 1
    47   20   48 1
    48   21   49 1
    49   22   50 1
    50   22   51 1
    51   22   52 1
    52   23   53 1
    53   23   54 1
    54   23   55 1
@<TRIPOS>MOLECULE
*****
   63    64     0     0     0
SMALL
NO_CHARGES

@<TRIPOS>ATOM
      1 O1          5.6655   -3.0938    0.0000 OS        1 <0>         0.0000
      2 O2          4.2365   -0.6188    0.0000 OS        1 <0>         0.0000
      3 O3          9.2379    3.0938    0.0000 OS        1 <0>         0.0000
      4 O4          4.9509    0.6188    0.0000 O         1 <0>         0.0000
      5 O5          2.0930   -1.0313    0.0000 OH        1 <0>         0.0000
      6 O6          2.8075    0.2063    0.0000 O         1 <0>         0.0000
      7 C1          5.6655   -0.6188    0.0000 CA        1 <0>         0.0000
      8 C2          4.9509   -1.0313    0.0000 CA        1 <0>         0.0000
      9 C3          5.6655   -2.2688    0.0000 CA        1 <0>         0.0000
     10 C4          4.9509   -1.8563    0.0000 CA        1 <0>         0.0000
     11 C5          6.3799   -1.0313    0.0000 CA        1 <0>         0.0000
     12 C6          6.3799   -1.8563    0.0000 CA        1 <0>         0.0000
     13 C7          5.6655    0.2063    0.0000 C         1 <0>         0.0000
     14 C8          7.0944    1.8563    0.0000 CA        1 <0>         0.0000
     15 C9          6.3799   -3.5063    0.0000 CT        1 <0>         0.0000
     16 C10         6.3799    0.6188    0.0000 CM        1 <0>         0.0000
     17 C11         6.3799    1.4438    0.0000 CM        1 <0>         0.0000
     18 C12         8.5234    2.6813    0.0000 CA        1 <0>         0.0000
     19 C13         7.0944    2.6813    0.0000 CA        1 <0>         0.0000
     20 C14         7.8089    1.4438    0.0000 CA        1 <0>         0.0000
     21 C15         7.8089    3.0938    0.0000 CA        1 <0>         0.0000
     22 C16         8.5234    1.8563    0.0000 CA        1 <0>         0.0000
     23 C17         6.3799   -4.3313    0.0000 CM        1 <0>         0.0000
     24 C18         7.0944   -4.7439    0.0000 CM        1 <0>         0.0000
     25 C19         9.2379    3.9188    0.0000 CT        1 <0>         0.0000
     26 C20         3.5220   -1.0313    0.0000 CT        1 <0>         0.0000
     27 C21         9.9524    4.3313    0.0000 CM        1 <0>         0.0000
     28 C22         9.9524    5.1564    0.0000 CM        1 <0>         0.0000
     29 C23         7.0944   -5.5689    0.0000 CT        1 <0>         0.0000
     30 C24         7.8089   -4.3313    0.0000 CT        1 <0>         0.0000
     31 C25        10.6668    5.5689    0.0000 CT        1 <0>         0.0000
     32 C26         9.2379    5.5689    0.0000 CT        1 <0>         0.0000
     33 C27         2.8075   -0.6188    0.0000 C         1 <0>         0.0000
     34 H1          2.0930   -1.0313    0.0000 HO        1 <0>         0.0000
     35 H2          4.9509   -1.8563    0.0000 HA        1 <0>         0.0000
     36 H3          6.3799   -1.0313    0.0000 HA        1 <0>         0.0000
     37 H4          6.3799   -1.8563    0.0000 HA        1 <0>         0.0000
     38 H5          6.3799   -3.5063    0.0000 H1        1 <0>         0.0000
     39 H6          6.3799   -3.5063    0.0000 H1        1 <0>         0.0000
     40 H7          6.3799    0.6188    0.0000 HA        1 <0>         0.0000
     41 H8          6.3799    1.4438    0.0000 HA        1 <0>         0.0000
     42 H9          7.0944    2.6813    0.0000 HA        1 <0>         0.0000
     43 H10         7.8089    1.4438    0.0000 HA        1 <0>         0.0000
     44 H11         7.8089    3.0938    0.0000 HA        1 <0>         0.0000
     45 H12         8.5234    1.8563    0.0000 HA        1 <0>         0.0000
     46 H13         6.3799   -4.3313    0.0000 HA        1 <0>         0.0000
     47 H14         9.2379    3.9188    0.0000 H1        1 <0>         0.0000
     48 H15         9.2379    3.9188    0.0000 H1        1 <0>         0.0000
     49 H16         3.5220   -1.0313    0.0000 H1        1 <0>         0.0000
     50 H17         3.5220   -1.0313    0.0000 H1        1 <0>         0.0000
     51 H18         9.9524    4.3313    0.0000 HA        1 <0>         0.0000
     52 H19         7.0944   -5.5689    0.0000 HC        1 <0>         0.0000
     53 H20         7.0944   -5.5689    0.0000 HC        1 <0>         0.0000
     54 H21         7.0944   -5.5689    0.0000 HC        1 <0>         0.0000
     55 H22         7.8089   -4.3313    0.0000 HC        1 <0>         0.0000
     56 H23         7.8089   -4.3313    0.0000 HC        1 <0>         0.0000
     57 H24         7.8089   -4.3313    0.0000 HC        1 <0>         0.0000
     58 H25        10.6668    5.5689    0.0000 HC        1 <0>         0.0000
     59 H26        10.6668    5.5689    0.0000 HC        1 <0>         0.0000
     60 H27        10.6668    5.5689    0.0000 HC        1 <0>         0.0000
     61 H28         9.2379    5.5689    0.0000 HC        1 <0>         0.0000
     62 H29         9.2379    5.5689    0.0000 HC        1 <0>         0.0000
     63 H30         9.2379    5.5689    0.0000 HC        1 <0>         0.0000
@<TRIPOS>BOND
     1    1    9 1
     2    1   15 1
     3    2    8 1
     4    2   26 1
     5    3   18 1
     6    3   25 1
     7    4   13 2
     8    5   33 1
     9    6   33 2
    10    7    8 ar
    11    7   11 ar
    12    7   13 1
    13    8   10 ar
    14    9   10 ar
    15    9   12 ar
    16   11   12 ar
    17   13   16 1
    18   14   17 1
    19   14   19 ar
    20   14   20 ar
    21   15   23 1
    22   16   17 2
    23   18   21 ar
    24   18   22 ar
    25   19   21 ar
    26   20   22 ar
    27   23   24 2
    28   24   29 1
    29   24   30 1
    30   25   27 1
    31   26   33 1
    32   27   28 2
    33   28   31 1
    34   28   32 1
    35    5   34 1
    36   10   35 1
    37   11   36 1
    38   12   37 1
    39   15   38 1
    40   15   39 1
    41   16   40 1
    42   17   41 1
    43   19   42 1
    44   20   43 1
    45   21   44 1
    46   22   45 1
    47   23   46 1
    48   25   47 1
    49   25   48 1
    50   26   49 1
    51   26   50 1
    52   27   51 1
    53   29   52 1
    54   29   53 1
    55   29   54 1
    56   30   55 1
    57   30   56 1
    58   30   57 1
    59   31   58 1
    60   31   59 1
    61   31   60 1
    62   32   61 1
    63   32   62 1
    64   32   63 1
@<TRIPOS>MOLECULE
*****
   46    47     0     0     0
SMALL
NO_CHARGES

@<TRIPOS>ATOM
      1 O1          3.0791    0.2063    0.0000 OH        1 <0>         0.0000
      2 O2          2.3645   -2.6813    0.0000 OS        1 <0>         0.0000
      3 O3          5.2224   -2.6813    0.0000 OS        1 <0>         0.0000
      4 O4          3.7935   -3.5063    0.0000 OS        1 <0>         0.0000
      5 O5          4.5080    3.5063    0.0000 OS        1 <0>         0.0000
      6 O6          5.9370    2.6813    0.0000 OH        1 <0>         0.0000
      7 C1          3.7935   -0.2063    0.0000 CT        1 <0>         0.0000
      8 C2          4.5080    0.2063    0.0000 CT        1 <0>         0.0000
      9 C3          3.7935   -1.0313    0.0000 CA        1 <0>         0.0000
     10 C4          4.5080    1.0313    0.0000 CA        1 <0>         0.0000
     11 C5          4.5080   -1.4438    0.0000 CA        1 <0>         0.0000
     12 C6          3.0791   -1.4438    0.0000 CA        1 <0>         0.0000
     13 C7          3.0791   -2.2688    0.0000 CA        1 <0>         0.0000
     14 C8          4.5080   -2.2688    0.0000 CA        1 <0>         0.0000
     15 C9          5.2224    1.4438    0.0000 CA        1 <0>         0.0000
     16 C10         3.7935    1.4438    0.0000 CA        1 <0>         0.0000
     17 C11         3.7935   -2.6813    0.0000 CA        1 <0>         0.0000
     18 C12         5.2224    2.2688    0.0000 CA        1 <0>         0.0000
     19 C13         3.7935    2.2688    0.0000 CA        1 <0>         0.0000
     20 C14         4.5080    2.6813    0.0000 CA        1 <0>         0.0000
     21 C15         1.6500   -2.2688    0.0000 CT        1 <0>         0.0000
     22 C16         5.9370   -2.2688    0.0000 CT        1 <0>         0.0000
     23 C17         3.0791   -3.9188    0.0000 CT        1 <0>         0.0000
     24 C18         3.7935    3.9188    0.0000 CT        1 <0>         0.0000
     25 H1          3.0791    0.2063    0.0000 HO        1 <0>         0.0000
     26 H2          5.9370    2.6813    0.0000 HO        1 <0>         0.0000
     27 H3          3.7935   -0.2063    0.0000 H1        1 <0>         0.0000
     28 H4          4.5080    0.2063    0.0000 HC        1 <0>         0.0000
     29 H5          4.5080    0.2063    0.0000 HC        1 <0>         0.0000
     30 H6          4.5080   -1.4438    0.0000 HA        1 <0>         0.0000
     31 H7          3.0791   -1.4438    0.0000 HA        1 <0>         0.0000
     32 H8          5.2224    1.4438    0.0000 HA        1 <0>         0.0000
     33 H9          3.7935    1.4438    0.0000 HA        1 <0>         0.0000
     34 H10         3.7935    2.2688    0.0000 HA        1 <0>         0.0000
     35 H11         1.6500   -2.2688    0.0000 H1        1 <0>         0.0000
     36 H12         1.6500   -2.2688    0.0000 H1        1 <0>         0.0000
     37 H13         1.6500   -2.2688    0.0000 H1        1 <0>         0.0000
     38 H14         5.9370   -2.2688    0.0000 H1        1 <0>         0.0000
     39 H15         5.9370   -2.2688    0.0000 H1        1 <0>         0.0000
     40 H16         5.9370   -2.2688    0.0000 H1        1 <0>         0.0000
     41 H17         3.0791   -3.9188    0.0000 H1        1 <0>         0.0000
     42 H18         3.0791   -3.9188    0.0000 H1        1 <0>         0.0000
     43 H19         3.0791   -3.9188    0.0000 H1        1 <0>         0.0000
     44 H20         3.7935    3.9188    0.0000 H1        1 <0>         0.0000
     45 H21         3.7935    3.9188    0.0000 H1        1 <0>         0.0000
     46 H22         3.7935    3.9188    0.0000 H1        1 <0>         0.0000
@<TRIPOS>BOND
     1    1    7 1
     2    2   13 1
     3    2   21 1
     4    3   14 1
     5    3   22 1
     6    4   17 1
     7    4   23 1
     8    5   20 1
     9    5   24 1
    10    6   18 1
    11    7    8 1
    12    7    9 1
    13    8   10 1
    14    9   11 ar
    15    9   12 ar
    16   10   15 ar
    17   10   16 ar
    18   11   14 ar
    19   12   13 ar
    20   13   17 ar
    21   14   17 ar
    22   15   18 ar
    23   16   19 ar
    24   18   20 ar
    25   19   20 ar
    26    1   25 1
    27    6   26 1
    28    7   27 1
    29    8   28 1
    30    8   29 1
    31   11   30 1
    32   12   31 1
    33   15   32 1
    34   16   33 1
    35   19   34 1
    36   21   35 1
    37   21   36 1
    38   21   37 1
    39   22   38 1
    40   22   39 1
    41   22   40 1
    42   23   41 1
    43   23   42 1
    44   23   43 1
    45   24   44 1
    46   24   45 1
    47   24   46 1
@<TRIPOS>MOLECULE
*****
   58    61     0     0     0
SMALL
NO_CHARGES

@<TRIPOS>ATOM
      1 O1          6.6263    1.5366    0.0000 OH        1 <0>         0.0000
      2 O2          7.4634    2.0559    0.0000 O         1 <0>         0.0000
      3 O3          8.9696    1.3822    0.0000 OS        1 <0>         0.0000
      4 O4          1.6500   -2.0181    0.0000 O         1 <0>         0.0000
      5 O5          9.8075    0.2246    0.0000 O         1 <0>         0.0000
      6 C1          6.0993    0.5001    0.0000 CT        1 <0>         0.0000
      7 C2          6.0993   -0.3249    0.0000 CT        1 <0>         0.0000
      8 C3          5.3849   -0.7374    0.0000 CT        1 <0>         0.0000
      9 C4          6.8799    0.7515    0.0000 CT        1 <0>         0.0000
     10 C5          6.8799   -0.5763    0.0000 CT        1 <0>         0.0000
     11 C6          7.3614    0.0876    0.0000 CT        1 <0>         0.0000
     12 C7          5.3849    0.9126    0.0000 CT        1 <0>         0.0000
     13 C8          4.6703   -0.3249    0.0000 CM        1 <0>         0.0000
     14 C9          3.9196   -0.7431    0.0000 CT        1 <0>         0.0000
     15 C10         5.3981   -1.5966    0.0000 CT        1 <0>         0.0000
     16 C11         6.0993    1.3251    0.0000 CT        1 <0>         0.0000
     17 C12         4.6703    0.5001    0.0000 CM        1 <0>         0.0000
     18 C13         4.6572   -2.0321    0.0000 CT        1 <0>         0.0000
     19 C14         3.9130   -1.6024    0.0000 CM        1 <0>         0.0000
     20 C15         7.5482    1.2353    0.0000 C         1 <0>         0.0000
     21 C16         3.1550   -0.2777    0.0000 CT        1 <0>         0.0000
     22 C17         3.9259    0.0819    0.0000 CT        1 <0>         0.0000
     23 C18         2.3729   -0.7132    0.0000 CT        1 <0>         0.0000
     24 C19         3.1413   -2.0559    0.0000 CM        1 <0>         0.0000
     25 C20         8.3013    0.8984    0.0000 CT        1 <0>         0.0000
     26 C21         2.3660   -1.6083    0.0000 C         1 <0>         0.0000
     27 C22         9.7227    1.0453    0.0000 C         1 <0>         0.0000
     28 C23        10.3910    1.5291    0.0000 CT        1 <0>         0.0000
     29 H1          6.1691   -0.9812    0.0000 HC        1 <0>         0.0000
     30 H2          5.9589   -1.0630    0.0000 HC        1 <0>         0.0000
     31 H3          6.6263    1.5366    0.0000 HO        1 <0>         0.0000
     32 H4          6.8799   -0.5763    0.0000 HC        1 <0>         0.0000
     33 H5          6.8799   -0.5763    0.0000 HC        1 <0>         0.0000
     34 H6          7.3614    0.0876    0.0000 HC        1 <0>         0.0000
     35 H7          7.3614    0.0876    0.0000 HC        1 <0>         0.0000
     36 H8          5.3849    0.9126    0.0000 HC        1 <0>         0.0000
     37 H9          5.3849    0.9126    0.0000 HC        1 <0>         0.0000
     38 H10         5.3981   -1.5966    0.0000 HC        1 <0>         0.0000
     39 H11         5.3981   -1.5966    0.0000 HC        1 <0>         0.0000
     40 H12         6.0993    1.3251    0.0000 HC        1 <0>         0.0000
     41 H13         6.0993    1.3251    0.0000 HC        1 <0>         0.0000
     42 H14         6.0993    1.3251    0.0000 HC        1 <0>         0.0000
     43 H15         4.6703    0.5001    0.0000 HA        1 <0>         0.0000
     44 H16         4.6572   -2.0321    0.0000 HC        1 <0>         0.0000
     45 H17         4.6572   -2.0321    0.0000 HC        1 <0>         0.0000
     46 H18         3.1550   -0.2777    0.0000 HC        1 <0>         0.0000
     47 H19         3.1550   -0.2777    0.0000 HC        1 <0>         0.0000
     48 H20         3.9259    0.0819    0.0000 HC        1 <0>         0.0000
     49 H21         3.9259    0.0819    0.0000 HC        1 <0>         0.0000
     50 H22         3.9259    0.0819    0.0000 HC        1 <0>         0.0000
     51 H23         2.3729   -0.7132    0.0000 HC        1 <0>         0.0000
     52 H24         2.3729   -0.7132    0.0000 HC        1 <0>         0.0000
     53 H25         3.1413   -2.0559    0.0000 HA        1 <0>         0.0000
     54 H26         8.3013    0.8984    0.0000 H1        1 <0>         0.0000
     55 H27         8.3013    0.8984    0.0000 H1        1 <0>         0.0000
     56 H28        10.3910    1.5291    0.0000 HC        1 <0>         0.0000
     57 H29        10.3910    1.5291    0.0000 HC        1 <0>         0.0000
     58 H30        10.3910    1.5291    0.0000 HC        1 <0>         0.0000
@<TRIPOS>BOND
     1    1    9 1
     2    2   20 2
     3    3   25 1
     4    3   27 1
     5    4   26 2
     6    5   27 2
     7    6    7 1
     8    6    9 1
     9    6   12 1
    10    6   16 1
    11    7    8 1
    12    7   10 1
    13    7   29 1
    14    8   13 1
    15    8   15 1
    16    8   30 1
    17    9   11 1
    18    9   20 1
    19   10   11 1
    20   12   17 1
    21   13   14 1
    22   13   17 2
    23   14   19 1
    24   14   21 1
    25   14   22 1
    26   15   18 1
    27   18   19 1
    28   19   24 2
    29   20   25 1
    30   21   23 1
    31   23   26 1
    32   24   26 1
    33   27   28 1
    34    1   31 1
    35   10   32 1
    36   10   33 1
    37   11   34 1
    38   11   35 1
    39   12   36 1
    40   12   37 1
    41   15   38 1
    42   15   39 1
    43   16   40 1
    44   16   41 1
    45   16   42 1
    46   17   43 1
    47   18   44 1
    48   18   45 1
    49   21   46 1
    50   21   47 1
    51   22   48 1
    52   22   49 1
    53   22   50 1
    54   23   51 1
    55   23   52 1
    56   24   53 1
    57   25   54 1
    58   25   55 1
    59   28   56 1
    60   28   57 1
    61   28   58 1
@<TRIPOS>MOLECULE
*****
   85    87     0     0     0
SMALL
NO_CHARGES

@<TRIPOS>ATOM
      1 C1         -1.4641    2.7601    0.0000 CT        1 <0>         0.0000
      2 C2         -1.4641    1.1101    0.0000 CM        1 <0>         0.0000
      3 C3          0.0350    1.2677    0.0000 CT        1 <0>         0.0000
      4 C4          0.5199    1.9352    0.0000 CT        1 <0>         0.0000
      5 C5         -2.1786    2.3475    0.0000 CT        1 <0>         0.0000
      6 C6         -1.4641    0.2851    0.0000 CM        1 <0>         0.0000
      7 C7         -2.1786    1.5226    0.0000 CT        1 <0>         0.0000
      8 C8         -2.1786   -0.1274    0.0000 CM        1 <0>         0.0000
      9 C9         -2.1786   -0.9524    0.0000 CM        1 <0>         0.0000
     10 C10        -1.4641   -1.3649    0.0000 CM        1 <0>         0.0000
     11 C11        -2.8931   -1.3649    0.0000 CT        1 <0>         0.0000
     12 C12        -0.7495   -0.9524    0.0000 CM        1 <0>         0.0000
     13 C13        -2.8931   -2.1899    0.0000 CT        1 <0>         0.0000
     14 C14        -2.1786   -2.6024    0.0000 CT        1 <0>         0.0000
     15 O1         -3.6075   -2.6024    0.0000 OH        1 <0>         0.0000
     16 C15        -0.6795    3.8401    0.0000 CT        1 <0>         0.0000
     17 C16         0.0350    3.4277    0.0000 CT        1 <0>         0.0000
     18 C17         0.7495    3.8401    0.0000 CT        1 <0>         0.0000
     19 C18         1.4639    3.4277    0.0000 CT        1 <0>         0.0000
     20 C19         3.6075    3.8401    0.0000 CT        1 <0>         0.0000
     21 C20         2.8930    2.6026    0.0000 CT        1 <0>         0.0000
     22 C21         2.1786    3.8401    0.0000 CT        1 <0>         0.0000
     23 C22         0.0350    2.6026    0.0000 CT        1 <0>         0.0000
     24 H1          0.7495    3.0151    0.0000 HC        1 <0>         0.0000
     25 C23        -0.7495    1.5226    0.0000 CT        1 <0>         0.0000
     26 H2         -0.7495    0.6976    0.0000 HC        1 <0>         0.0000
     27 C24        -0.7495    2.3475    0.0000 CT        1 <0>         0.0000
     28 C25        -0.7495    3.1726    0.0000 CT        1 <0>         0.0000
     29 C26         2.8930    3.4277    0.0000 CT        1 <0>         0.0000
     30 O2          3.6075    3.0151    0.0000 OH        1 <0>         0.0000
     31 C27        -1.4641   -2.1899    0.0000 CT        1 <0>         0.0000
     32 O3         -0.7495   -2.6024    0.0000 OH        1 <0>         0.0000
     33 O4         -2.1787   -3.4275    0.0000 OS        1 <0>         0.0000
     34 C28        -1.4641   -3.8400    0.0000 CT        1 <0>         0.0000
     35 C29        -0.7496   -3.4276    0.0000 CT        1 <0>         0.0000
     36 C30        -0.0351   -3.8401    0.0000 CT        1 <0>         0.0000
     37 O5          0.6794   -3.4277    0.0000 OH        1 <0>         0.0000
     38 H3         -1.4641    2.7601    0.0000 HC        1 <0>         0.0000
     39 H4         -1.4641    2.7601    0.0000 HC        1 <0>         0.0000
     40 H5          0.0350    1.2677    0.0000 HC        1 <0>         0.0000
     41 H6          0.0350    1.2677    0.0000 HC        1 <0>         0.0000
     42 H7          0.5199    1.9352    0.0000 HC        1 <0>         0.0000
     43 H8          0.5199    1.9352    0.0000 HC        1 <0>         0.0000
     44 H9         -2.1786    2.3475    0.0000 HC        1 <0>         0.0000
     45 H10        -2.1786    2.3475    0.0000 HC        1 <0>         0.0000
     46 H11        -1.4641    0.2851    0.0000 HA        1 <0>         0.0000
     47 H12        -2.1786    1.5226    0.0000 HC        1 <0>         0.0000
     48 H13        -2.1786    1.5226    0.0000 HC        1 <0>         0.0000
     49 H14        -2.1786   -0.1274    0.0000 HA        1 <0>         0.0000
     50 H15        -2.8931   -1.3649    0.0000 HC        1 <0>         0.0000
     51 H16        -2.8931   -1.3649    0.0000 HC        1 <0>         0.0000
     52 H17        -0.7495   -0.9524    0.0000 HA        1 <0>         0.0000
     53 H18        -0.7495   -0.9524    0.0000 HA        1 <0>         0.0000
     54 H19        -2.8931   -2.1899    0.0000 H1        1 <0>         0.0000
     55 H20        -2.1786   -2.6024    0.0000 H1        1 <0>         0.0000
     56 H21        -3.6075   -2.6024    0.0000 HO        1 <0>         0.0000
     57 H22        -0.6795    3.8401    0.0000 HC        1 <0>         0.0000
     58 H23        -0.6795    3.8401    0.0000 HC        1 <0>         0.0000
     59 H24        -0.6795    3.8401    0.0000 HC        1 <0>         0.0000
     60 H25         0.0350    3.4277    0.0000 HC        1 <0>         0.0000
     61 H26         0.7495    3.8401    0.0000 HC        1 <0>         0.0000
     62 H27         0.7495    3.8401    0.0000 HC        1 <0>         0.0000
     63 H28         1.4639    3.4277    0.0000 HC        1 <0>         0.0000
     64 H29         1.4639    3.4277    0.0000 HC        1 <0>         0.0000
     65 H30         3.6075    3.8401    0.0000 HC        1 <0>         0.0000
     66 H31         3.6075    3.8401    0.0000 HC        1 <0>         0.0000
     67 H32         3.6075    3.8401    0.0000 HC        1 <0>         0.0000
     68 H33         2.8930    2.6026    0.0000 HC        1 <0>         0.0000
     69 H34         2.8930    2.6026    0.0000 HC        1 <0>         0.0000
     70 H35         2.8930    2.6026    0.0000 HC        1 <0>         0.0000
     71 H36         2.1786    3.8401    0.0000 HC        1 <0>         0.0000
     72 H37         2.1786    3.8401    0.0000 HC        1 <0>         0.0000
     73 H38        -0.7495    3.1726    0.0000 HC        1 <0>         0.0000
     74 H39        -0.7495    3.1726    0.0000 HC        1 <0>         0.0000
     75 H40        -0.7495    3.1726    0.0000 HC        1 <0>         0.0000
     76 H41         3.6075    3.0151    0.0000 HO        1 <0>         0.0000
     77 H42        -1.4641   -2.1899    0.0000 H1        1 <0>         0.0000
     78 H43        -0.7495   -2.6024    0.0000 HO        1 <0>         0.0000
     79 H44        -1.4641   -3.8400    0.0000 H1        1 <0>         0.0000
     80 H45        -1.4641   -3.8400    0.0000 H1        1 <0>         0.0000
     81 H46        -0.7496   -3.4276    0.0000 HC        1 <0>         0.0000
     82 H47        -0.7496   -3.4276    0.0000 HC        1 <0>         0.0000
     83 H48        -0.0351   -3.8401    0.0000 H1        1 <0>         0.0000
     84 H49        -0.0351   -3.8401    0.0000 H1        1 <0>         0.0000
     85 H50         0.6794   -3.4277    0.0000 HO        1 <0>         0.0000
@<TRIPOS>BOND
     1   25   27 1
     2   23   27 1
     3    1   27 1
     4    2   25 1
     5    3   25 1
     6    4   23 1
     7    1    5 1
     8    2    6 2
     9    2    7 1
    10    6    8 1
    11    8    9 2
    12    9   10 1
    13    9   11 1
    14   10   31 1
    15   10   12 2
    16   11   13 1
    17   14   31 1
    18   13   15 1
    19    3    4 1
    20    5    7 1
    21   13   14 1
    22   17   23 1
    23   16   17 1
    24   17   18 1
    25   18   19 1
    26   19   22 1
    27   22   29 1
    28   20   29 1
    29   21   29 1
    30   23   24 1
    31   25   26 1
    32   27   28 1
    33   29   30 1
    34   31   32 1
    35   14   33 1
    36   33   34 1
    37   34   35 1
    38   35   36 1
    39   36   37 1
    40    1   38 1
    41    1   39 1
    42    3   40 1
    43    3   41 1
    44    4   42 1
    45    4   43 1
    46    5   44 1
    47    5   45 1
    48    6   46 1
    49    7   47 1
    50    7   48 1
    51    8   49 1
    52   11   50 1
    53   11   51 1
    54   12   52 1
    55   12   53 1
    56   13   54 1
    57   14   55 1
    58   15   56 1
    59   16   57 1
    60   16   58 1
    61   16   59 1
    62   17   60 1
    63   18   61 1
    64   18   62 1
    65   19   63 1
    66   19   64 1
    67   20   65 1
    68   20   66 1
    69   20   67 1
    70   21   68 1
    71   21   69 1
    72   21   70 1
    73   22   71 1
    74   22   72 1
    75   28   73 1
    76   28   74 1
    77   28   75 1
    78   30   76 1
    79   31   77 1
    80   32   78 1
    81   34   79 1
    82   34   80 1
    83   35   81 1
    84   35   82 1
    85   36   83 1
    86   36   84 1
    87   37   85 1
@<TRIPOS>MOLECULE
*****
   35    34     0     0     0
SMALL
NO_CHARGES

@<TRIPOS>ATOM
      1 O1          7.3659    0.4125    0.0000 OH        1 <0>         0.0000
      2 O2          6.6515    1.6500    0.0000 O         1 <0>         0.0000
      3 C1          5.9370    0.4125    0.0000 CT        1 <0>         0.0000
      4 C2          5.2224    0.8250    0.0000 CT        1 <0>         0.0000
      5 C3          4.5080    0.4125    0.0000 CT        1 <0>         0.0000
      6 C4          5.9370   -0.4125    0.0000 CT        1 <0>         0.0000
      7 C5          3.7935    0.8250    0.0000 CT        1 <0>         0.0000
      8 C6          3.0791    0.4125    0.0000 CT        1 <0>         0.0000
      9 C7          5.2224   -0.8250    0.0000 CT        1 <0>         0.0000
     10 C8          6.6515    0.8250    0.0000 C         1 <0>         0.0000
     11 C9          2.3645    0.8250    0.0000 CT        1 <0>         0.0000
     12 C10         5.2224   -1.6500    0.0000 CT        1 <0>         0.0000
     13 C11         1.6500    0.4125    0.0000 CT        1 <0>         0.0000
     14 H1          7.3659    0.4125    0.0000 HO        1 <0>         0.0000
     15 H2          5.9370    0.4125    0.0000 HC        1 <0>         0.0000
     16 H3          5.2224    0.8250    0.0000 HC        1 <0>         0.0000
     17 H4          5.2224    0.8250    0.0000 HC        1 <0>         0.0000
     18 H5          4.5080    0.4125    0.0000 HC        1 <0>         0.0000
     19 H6          4.5080    0.4125    0.0000 HC        1 <0>         0.0000
     20 H7          5.9370   -0.4125    0.0000 HC        1 <0>         0.0000
     21 H8          5.9370   -0.4125    0.0000 HC        1 <0>         0.0000
     22 H9          3.7935    0.8250    0.0000 HC        1 <0>         0.0000
     23 H10         3.7935    0.8250    0.0000 HC        1 <0>         0.0000
     24 H11         3.0791    0.4125    0.0000 HC        1 <0>         0.0000
     25 H12         3.0791    0.4125    0.0000 HC        1 <0>         0.0000
     26 H13         5.2224   -0.8250    0.0000 HC        1 <0>         0.0000
     27 H14         5.2224   -0.8250    0.0000 HC        1 <0>         0.0000
     28 H15         2.3645    0.8250    0.0000 HC        1 <0>         0.0000
     29 H16         2.3645    0.8250    0.0000 HC        1 <0>         0.0000
     30 H17         5.2224   -1.6500    0.0000 HC        1 <0>         0.0000
     31 H18         5.2224   -1.6500    0.0000 HC        1 <0>         0.0000
     32 H19         5.2224   -1.6500    0.0000 HC        1 <0>         0.0000
     33 H20         1.6500    0.4125    0.0000 HC        1 <0>         0.0000
     34 H21         1.6500    0.4125    0.0000 HC        1 <0>         0.0000
     35 H22         1.6500    0.4125    0.0000 HC        1 <0>         0.0000
@<TRIPOS>BOND
     1    1   10 1
     2    2   10 2
     3    3    4 1
     4    3    6 1
     5    3   10 1
     6    4    5 1
     7    5    7 1
     8    6    9 1
     9    7    8 1
    10    8   11 1
    11    9   12 1
    12   11   13 1
    13    1   14 1
    14    3   15 1
    15    4   16 1
    16    4   17 1
    17    5   18 1
    18    5   19 1
    19    6   20 1
    20    6   21 1
    21    7   22 1
    22    7   23 1
    23    8   24 1
    24    8   25 1
    25    9   26 1
    26    9   27 1
    27   11   28 1
    28   11   29 1
    29   12   30 1
    30   12   31 1
    31   12   32 1
    32   13   33 1
    33   13   34 1
    34   13   35 1
@<TRIPOS>MOLECULE
*****
   36    38     0     0     0
SMALL
NO_CHARGES

@<TRIPOS>ATOM
      1 O1          6.3709   -0.8559    0.0000 OH        1 <0>         0.0000
      2 O2          6.2603    0.3817    0.0000 O         1 <0>         0.0000
      3 O3          2.1506    0.9634    0.0000 OH        1 <0>         0.0000
      4 C1          4.8314   -1.2684    0.0000 CJ        1 <0>         0.0000
      5 C2          5.2439   -1.9829    0.0000 CJ        1 <0>         0.0000
      6 C3          4.4189   -1.9829    0.0000 CJ        1 <0>         0.0000
      7 C4          5.5459   -0.8559    0.0000 CT        1 <0>         0.0000
      8 C5          4.1168   -0.8559    0.0000 CM        1 <0>         0.0000
      9 C6          4.1168   -0.0309    0.0000 C*        1 <0>         0.0000
     10 C7          5.5459   -0.0309    0.0000 C         1 <0>         0.0000
     11 C8          5.9584   -1.5704    0.0000 CT        1 <0>         0.0000
     12 C9          4.8314    0.3817    0.0000 CW        1 <0>         0.0000
     13 C10         3.4024   -1.2684    0.0000 CT        1 <0>         0.0000
     14 C11         3.5088    0.5194    0.0000 CW        1 <0>         0.0000
     15 C12         4.6588    1.1834    0.0000 CC        1 <0>         0.0000
     16 C13         3.8430    1.2684    0.0000 CC        1 <0>         0.0000
     17 C14         2.7015    0.3493    0.0000 CT        1 <0>         0.0000
     18 C15         3.4305    1.9829    0.0000 CT        1 <0>         0.0000
     19 H1          6.3709   -0.8559    0.0000 HO        1 <0>         0.0000
     20 H2          2.1506    0.9634    0.0000 HO        1 <0>         0.0000
     21 H3          5.2439   -1.9829    0.0000 HC        1 <0>         0.0000
     22 H4          5.2439   -1.9829    0.0000 HC        1 <0>         0.0000
     23 H5          4.4189   -1.9829    0.0000 HC        1 <0>         0.0000
     24 H6          4.4189   -1.9829    0.0000 HC        1 <0>         0.0000
     25 H7          5.9584   -1.5704    0.0000 HC        1 <0>         0.0000
     26 H8          5.9584   -1.5704    0.0000 HC        1 <0>         0.0000
     27 H9          5.9584   -1.5704    0.0000 HC        1 <0>         0.0000
     28 H10         3.4024   -1.2684    0.0000 HC        1 <0>         0.0000
     29 H11         3.4024   -1.2684    0.0000 HC        1 <0>         0.0000
     30 H12         3.4024   -1.2684    0.0000 HC        1 <0>         0.0000
     31 H13         4.6588    1.1834    0.0000 HA        1 <0>         0.0000
     32 H14         2.7015    0.3493    0.0000 H1        1 <0>         0.0000
     33 H15         2.7015    0.3493    0.0000 H1        1 <0>         0.0000
     34 H16         3.4305    1.9829    0.0000 HC        1 <0>         0.0000
     35 H17         3.4305    1.9829    0.0000 HC        1 <0>         0.0000
     36 H18         3.4305    1.9829    0.0000 HC        1 <0>         0.0000
@<TRIPOS>BOND
     1    1    7 1
     2    2   10 2
     3    3   17 1
     4    4    5 1
     5    4    6 1
     6    4    7 1
     7    4    8 1
     8    5    6 1
     9    7   10 1
    10    7   11 1
    11    8    9 2
    12    8   13 1
    13    9   12 1
    14    9   14 1
    15   10   12 1
    16   12   15 2
    17   14   16 2
    18   14   17 1
    19   15   16 1
    20   16   18 1
    21    1   19 1
    22    3   20 1
    23    5   21 1
    24    5   22 1
    25    6   23 1
    26    6   24 1
    27   11   25 1
    28   11   26 1
    29   11   27 1
    30   13   28 1
    31   13   29 1
    32   13   30 1
    33   15   31 1
    34   17   32 1
    35   17   33 1
    36   18   34 1
    37   18   35 1
    38   18   36 1
@<TRIPOS>MOLECULE
*****
   49    52     0     0     0
SMALL
NO_CHARGES

@<TRIPOS>ATOM
      1 O1          7.1353    1.7429    0.0000 OH        1 <0>         0.0000
      2 O2          1.6498   -1.8105    0.0000 O         1 <0>         0.0000
      3 C1          6.0985   -0.1176    0.0000 CT        1 <0>         0.0000
      4 C2          6.0985    0.7073    0.0000 CT        1 <0>         0.0000
      5 C3          5.3842   -0.5300    0.0000 CT        1 <0>         0.0000
      6 C4          4.6697   -0.1176    0.0000 CT        1 <0>         0.0000
      7 C5          5.3842    1.1197    0.0000 CT        1 <0>         0.0000
      8 C6          4.6697    0.7073    0.0000 CT        1 <0>         0.0000
      9 C7          6.8790    0.9588    0.0000 CT        1 <0>         0.0000
     10 C8          5.3974   -1.3891    0.0000 CT        1 <0>         0.0000
     11 C9          6.8790   -0.3689    0.0000 CT        1 <0>         0.0000
     12 C10         3.9191   -0.5356    0.0000 CT        1 <0>         0.0000
     13 C11         7.3604    0.2949    0.0000 CT        1 <0>         0.0000
     14 C12         4.6566   -1.8245    0.0000 CT        1 <0>         0.0000
     15 C13         6.0985    1.5322    0.0000 CT        1 <0>         0.0000
     16 C14         3.9125   -1.3948    0.0000 CM        1 <0>         0.0000
     17 C15         3.1546   -0.0703    0.0000 CT        1 <0>         0.0000
     18 C16         6.1165   -1.7933    0.0000 CT        1 <0>         0.0000
     19 C17         2.3726   -0.5058    0.0000 CT        1 <0>         0.0000
     20 C18         3.1409   -1.8482    0.0000 CM        1 <0>         0.0000
     21 C19         2.3658   -1.4007    0.0000 C         1 <0>         0.0000
     22 H1          7.1353    1.7429    0.0000 HO        1 <0>         0.0000
     23 H2          6.0985   -0.1176    0.0000 HC        1 <0>         0.0000
     24 H3          5.3842   -0.5300    0.0000 HC        1 <0>         0.0000
     25 H4          4.6697   -0.1176    0.0000 HC        1 <0>         0.0000
     26 H5          5.3842    1.1197    0.0000 HC        1 <0>         0.0000
     27 H6          5.3842    1.1197    0.0000 HC        1 <0>         0.0000
     28 H7          4.6697    0.7073    0.0000 HC        1 <0>         0.0000
     29 H8          4.6697    0.7073    0.0000 HC        1 <0>         0.0000
     30 H9          6.8790    0.9588    0.0000 H1        1 <0>         0.0000
     31 H10         5.3974   -1.3891    0.0000 HC        1 <0>         0.0000
     32 H11         6.8790   -0.3689    0.0000 HC        1 <0>         0.0000
     33 H12         6.8790   -0.3689    0.0000 HC        1 <0>         0.0000
     34 H13         3.9191   -0.5356    0.0000 HC        1 <0>         0.0000
     35 H14         7.3604    0.2949    0.0000 HC        1 <0>         0.0000
     36 H15         7.3604    0.2949    0.0000 HC        1 <0>         0.0000
     37 H16         4.6566   -1.8245    0.0000 HC        1 <0>         0.0000
     38 H17         4.6566   -1.8245    0.0000 HC        1 <0>         0.0000
     39 H18         6.0985    1.5322    0.0000 HC        1 <0>         0.0000
     40 H19         6.0985    1.5322    0.0000 HC        1 <0>         0.0000
     41 H20         6.0985    1.5322    0.0000 HC        1 <0>         0.0000
     42 H21         3.1546   -0.0703    0.0000 HC        1 <0>         0.0000
     43 H22         3.1546   -0.0703    0.0000 HC        1 <0>         0.0000
     44 H23         6.1165   -1.7933    0.0000 HC        1 <0>         0.0000
     45 H24         6.1165   -1.7933    0.0000 HC        1 <0>         0.0000
     46 H25         6.1165   -1.7933    0.0000 HC        1 <0>         0.0000
     47 H26         2.3726   -0.5058    0.0000 HC        1 <0>         0.0000
     48 H27         2.3726   -0.5058    0.0000 HC        1 <0>         0.0000
     49 H28         3.1409   -1.8482    0.0000 HA        1 <0>         0.0000
@<TRIPOS>BOND
     1    1    9 1
     2    2   21 2
     3    3    4 1
     4    3    5 1
     5    3   11 1
     6    4    7 1
     7    4    9 1
     8    4   15 1
     9    5    6 1
    10    5   10 1
    11    6    8 1
    12    6   12 1
    13    7    8 1
    14    9   13 1
    15   10   14 1
    16   10   18 1
    17   11   13 1
    18   12   16 1
    19   12   17 1
    20   14   16 1
    21   16   20 2
    22   17   19 1
    23   19   21 1
    24   20   21 1
    25    1   22 1
    26    3   23 1
    27    5   24 1
    28    6   25 1
    29    7   26 1
    30    7   27 1
    31    8   28 1
    32    8   29 1
    33    9   30 1
    34   10   31 1
    35   11   32 1
    36   11   33 1
    37   12   34 1
    38   13   35 1
    39   13   36 1
    40   14   37 1
    41   14   38 1
    42   15   39 1
    43   15   40 1
    44   15   41 1
    45   17   42 1
    46   17   43 1
    47   18   44 1
    48   18   45 1
    49   18   46 1
    50   19   47 1
    51   19   48 1
    52   20   49 1
@<TRIPOS>MOLECULE
*****
   16    15     0     0     0
SMALL
NO_CHARGES

@<TRIPOS>ATOM
      1 O1          3.0788    0.2063    0.0000 OS        1 <0>         0.0000
      2 O2          3.7932   -1.0312    0.0000 O         1 <0>         0.0000
      3 O3          4.5076    1.0312    0.0000 O         1 <0>         0.0000
      4 C1          2.3643   -0.2063    0.0000 CT        1 <0>         0.0000
      5 C2          1.6498    0.2063    0.0000 CT        1 <0>         0.0000
      6 C3          3.7932   -0.2063    0.0000 C         1 <0>         0.0000
      7 C4          4.5076    0.2063    0.0000 C         1 <0>         0.0000
      8 C5          5.2219   -0.2063    0.0000 CT        1 <0>         0.0000
      9 H1          2.3643   -0.2063    0.0000 H1        1 <0>         0.0000
     10 H2          2.3643   -0.2063    0.0000 H1        1 <0>         0.0000
     11 H3          1.6498    0.2063    0.0000 HC        1 <0>         0.0000
     12 H4          1.6498    0.2063    0.0000 HC        1 <0>         0.0000
     13 H5          1.6498    0.2063    0.0000 HC        1 <0>         0.0000
     14 H6          5.2219   -0.2063    0.0000 HC        1 <0>         0.0000
     15 H7          5.2219   -0.2063    0.0000 HC        1 <0>         0.0000
     16 H8          5.2219   -0.2063    0.0000 HC        1 <0>         0.0000
@<TRIPOS>BOND
     1    1    4 1
     2    1    6 1
     3    2    6 2
     4    3    7 2
     5    4    5 1
     6    6    7 1
     7    7    8 1
     8    4    9 1
     9    4   10 1
    10    5   11 1
    11    5   12 1
    12    5   13 1
    13    8   14 1
    14    8   15 1
    15    8   16 1
@<TRIPOS>MOLECULE
*****
   74    76     0     0     0
SMALL
NO_CHARGES

@<TRIPOS>ATOM
      1 C1         -2.3441   -0.6152    0.0000 CT        1 <0>         0.0000
      2 C2         -1.2822    0.3409    0.0000 CT        1 <0>         0.0000
      3 C3         -1.2400   -1.8414    0.0000 CT        1 <0>         0.0000
      4 C4          1.4358   -0.5422    0.0000 CT        1 <0>         0.0000
      5 C5          4.7812    4.4104    0.0000 CM        1 <0>         0.0000
      6 C6          1.8371    0.2900    0.0000 CT        1 <0>         0.0000
      7 C7          3.3523    1.1104    0.0000 CT        1 <0>         0.0000
      8 C8          3.3523    1.9354    0.0000 CT        1 <0>         0.0000
      9 C9         -0.1781   -0.8853    0.0000 CM        1 <0>         0.0000
     10 C10         0.0768   -0.1006    0.0000 CM        1 <0>         0.0000
     11 C11         2.6378    3.1729    0.0000 CM        1 <0>         0.0000
     12 C12         3.3523    3.5854    0.0000 CM        1 <0>         0.0000
     13 C13         0.6538    1.5229    0.0000 CT        1 <0>         0.0000
     14 C14         1.1387    2.1904    0.0000 CT        1 <0>         0.0000
     15 C15         2.6378    0.6979    0.0000 CT        1 <0>         0.0000
     16 C16         2.6378    4.8229    0.0000 CT        1 <0>         0.0000
     17 C17         3.3523    6.0604    0.0000 CT        1 <0>         0.0000
     18 C18        -1.5371   -0.4437    0.0000 CT        1 <0>         0.0000
     19 C19        -0.9851   -1.0568    0.0000 CT        1 <0>         0.0000
     20 C20         0.8838    0.0709    0.0000 CT        1 <0>         0.0000
     21 C21         4.0668    4.8229    0.0000 CM        1 <0>         0.0000
     22 C22         2.6378    2.3479    0.0000 CM        1 <0>         0.0000
     23 C23         3.3523    4.4104    0.0000 CM        1 <0>         0.0000
     24 C24         2.6378    5.6479    0.0000 CT        1 <0>         0.0000
     25 C25         1.1387    0.8555    0.0000 CT        1 <0>         0.0000
     26 C26         1.9233    1.9354    0.0000 CT        1 <0>         0.0000
     27 C27         4.0668    5.6479    0.0000 CT        1 <0>         0.0000
     28 C28         1.9233    1.1104    0.0000 CT        1 <0>         0.0000
     29 O1          1.9233    6.0604    0.0000 OH        1 <0>         0.0000
     30 O2          4.7812    6.0604    0.0000 OH        1 <0>         0.0000
     31 H1          0.3739   -1.4984    0.0000 HA        1 <0>         0.0000
     32 H2         -0.4752    0.5124    0.0000 HA        1 <0>         0.0000
     33 H3          1.9233    3.5854    0.0000 HA        1 <0>         0.0000
     34 H4          4.0668    3.1729    0.0000 HA        1 <0>         0.0000
     35 H5         -0.4331   -1.6699    0.0000 HC        1 <0>         0.0000
     36 H6          0.6288   -0.7137    0.0000 HC        1 <0>         0.0000
     37 H7          1.9233    5.2354    0.0000 H1        1 <0>         0.0000
     38 H8          0.3239    0.7264    0.0000 HC        1 <0>         0.0000
     39 H9          1.8371    2.7559    0.0000 HC        1 <0>         0.0000
     40 H10         4.0668    6.4729    0.0000 H1        1 <0>         0.0000
     41 H11        -2.3441   -0.6152    0.0000 HC        1 <0>         0.0000
     42 H12        -2.3441   -0.6152    0.0000 HC        1 <0>         0.0000
     43 H13        -2.3441   -0.6152    0.0000 HC        1 <0>         0.0000
     44 H14        -1.2822    0.3409    0.0000 HC        1 <0>         0.0000
     45 H15        -1.2822    0.3409    0.0000 HC        1 <0>         0.0000
     46 H16        -1.2822    0.3409    0.0000 HC        1 <0>         0.0000
     47 H17        -1.2400   -1.8414    0.0000 HC        1 <0>         0.0000
     48 H18        -1.2400   -1.8414    0.0000 HC        1 <0>         0.0000
     49 H19        -1.2400   -1.8414    0.0000 HC        1 <0>         0.0000
     50 H20         1.4358   -0.5422    0.0000 HC        1 <0>         0.0000
     51 H21         1.4358   -0.5422    0.0000 HC        1 <0>         0.0000
     52 H22         1.4358   -0.5422    0.0000 HC        1 <0>         0.0000
     53 H23         4.7812    4.4104    0.0000 HA        1 <0>         0.0000
     54 H24         4.7812    4.4104    0.0000 HA        1 <0>         0.0000
     55 H25         1.8371    0.2900    0.0000 HC        1 <0>         0.0000
     56 H26         1.8371    0.2900    0.0000 HC        1 <0>         0.0000
     57 H27         1.8371    0.2900    0.0000 HC        1 <0>         0.0000
     58 H28         3.3523    1.1104    0.0000 HC        1 <0>         0.0000
     59 H29         3.3523    1.1104    0.0000 HC        1 <0>         0.0000
     60 H30         3.3523    1.9354    0.0000 HC        1 <0>         0.0000
     61 H31         3.3523    1.9354    0.0000 HC        1 <0>         0.0000
     62 H32         0.6538    1.5229    0.0000 HC        1 <0>         0.0000
     63 H33         0.6538    1.5229    0.0000 HC        1 <0>         0.0000
     64 H34         1.1387    2.1904    0.0000 HC        1 <0>         0.0000
     65 H35         1.1387    2.1904    0.0000 HC        1 <0>         0.0000
     66 H36         2.6378    0.6979    0.0000 HC        1 <0>         0.0000
     67 H37         2.6378    0.6979    0.0000 HC        1 <0>         0.0000
     68 H38         2.6378    4.8229    0.0000 HC        1 <0>         0.0000
     69 H39         2.6378    4.8229    0.0000 HC        1 <0>         0.0000
     70 H40         3.3523    6.0604    0.0000 HC        1 <0>         0.0000
     71 H41         3.3523    6.0604    0.0000 HC        1 <0>         0.0000
     72 H42        -1.5371   -0.4437    0.0000 HC        1 <0>         0.0000
     73 H43         1.9233    6.0604    0.0000 HO        1 <0>         0.0000
     74 H44         4.7812    6.0604    0.0000 HO        1 <0>         0.0000
@<TRIPOS>BOND
     1    7    8 1
     2    9   10 2
     3   11   12 1
     4   13   14 1
     5    7   15 1
     6    1   18 1
     7    2   18 1
     8    3   19 1
     9    9   19 1
    10   18   19 1
    11    4   20 1
    12   10   20 1
    13    5   21 2
    14    8   22 1
    15   11   22 2
    16   12   23 2
    17   16   23 1
    18   21   23 1
    19   16   24 1
    20   17   24 1
    21   13   25 1
    22   20   25 1
    23   14   26 1
    24   22   26 1
    25   17   27 1
    26   21   27 1
    27    6   28 1
    28   15   28 1
    29   25   28 1
    30   26   28 1
    31   24   29 1
    32   27   30 1
    33    9   31 1
    34   10   32 1
    35   11   33 1
    36   12   34 1
    37   19   35 1
    38   20   36 1
    39   24   37 1
    40   25   38 1
    41   26   39 1
    42   27   40 1
    43    1   41 1
    44    1   42 1
    45    1   43 1
    46    2   44 1
    47    2   45 1
    48    2   46 1
    49    3   47 1
    50    3   48 1
    51    3   49 1
    52    4   50 1
    53    4   51 1
    54    4   52 1
    55    5   53 1
    56    5   54 1
    57    6   55 1
    58    6   56 1
    59    6   57 1
    60    7   58 1
    61    7   59 1
    62    8   60 1
    63    8   61 1
    64   13   62 1
    65   13   63 1
    66   14   64 1
    67   14   65 1
    68   15   66 1
    69   15   67 1
    70   16   68 1
    71   16   69 1
    72   17   70 1
    73   17   71 1
    74   18   72 1
    75   29   73 1
    76   30   74 1
@<TRIPOS>MOLECULE
*****
   56    59     0     0     0
SMALL
NO_CHARGES

@<TRIPOS>ATOM
      1 C1          0.3452   -0.0868    0.0000 CT        1 <0>         0.0000
      2 C2          1.0569   -0.5047    0.0000 CT        1 <0>         0.0000
      3 C3         -0.3735   -0.4976    0.0000 CT        1 <0>         0.0000
      4 C4          0.3523    0.7382    0.0000 CT        1 <0>         0.0000
      5 C5          1.7686   -0.0939    0.0000 CT        1 <0>         0.0000
      6 C6          1.0569   -1.3297    0.0000 CT        1 <0>         0.0000
      7 C7         -0.3770   -1.3226    0.0000 CT        1 <0>         0.0000
      8 C8         -1.0853   -0.0832    0.0000 CT        1 <0>         0.0000
      9 C9          1.0711    1.1453    0.0000 CT        1 <0>         0.0000
     10 C10         1.7793    0.7275    0.0000 CT        1 <0>         0.0000
     11 C11         3.2345   -0.1115    0.0000 CT        1 <0>         0.0000
     12 C12         0.3381   -1.7369    0.0000 CT        1 <0>         0.0000
     13 C13        -1.0853   -1.7333    0.0000 CT        1 <0>         0.0000
     14 C14        -1.8040   -0.4976    0.0000 CM        1 <0>         0.0000
     15 C15         2.4946    1.1311    0.0000 CT        1 <0>         0.0000
     16 C16         3.2027    0.7099    0.0000 CT        1 <0>         0.0000
     17 C17        -1.8040   -1.3226    0.0000 C         1 <0>         0.0000
     18 C18        -2.5158   -0.0832    0.0000 CM        1 <0>         0.0000
     19 C19         3.1744    1.5879    0.0000 CT        1 <0>         0.0000
     20 O1          2.5052    2.1722    0.0000 OH        1 <0>         0.0000
     21 O2         -2.5158   -1.7333    0.0000 O         1 <0>         0.0000
     22 O3         -3.2345   -0.4976    0.0000 OH        1 <0>         0.0000
     23 C20         1.7793    1.5772    0.0000 CT        1 <0>         0.0000
     24 H1          1.0569    0.3449    0.0000 HC        1 <0>         0.0000
     25 C21        -0.3735    0.3519    0.0000 CT        1 <0>         0.0000
     26 H2         -0.3770   -2.1722    0.0000 HC        1 <0>         0.0000
     27 H3          0.3452   -0.9364    0.0000 HC        1 <0>         0.0000
     28 H4          1.7686   -0.9435    0.0000 HC        1 <0>         0.0000
     29 H5          0.3523    0.7382    0.0000 HC        1 <0>         0.0000
     30 H6          0.3523    0.7382    0.0000 HC        1 <0>         0.0000
     31 H7          1.0569   -1.3297    0.0000 HC        1 <0>         0.0000
     32 H8          1.0569   -1.3297    0.0000 HC        1 <0>         0.0000
     33 H9         -1.0853   -0.0832    0.0000 HC        1 <0>         0.0000
     34 H10        -1.0853   -0.0832    0.0000 HC        1 <0>         0.0000
     35 H11         1.0711    1.1453    0.0000 HC        1 <0>         0.0000
     36 H12         1.0711    1.1453    0.0000 HC        1 <0>         0.0000
     37 H13         3.2345   -0.1115    0.0000 HC        1 <0>         0.0000
     38 H14         3.2345   -0.1115    0.0000 HC        1 <0>         0.0000
     39 H15         0.3381   -1.7369    0.0000 HC        1 <0>         0.0000
     40 H16         0.3381   -1.7369    0.0000 HC        1 <0>         0.0000
     41 H17        -1.0853   -1.7333    0.0000 HC        1 <0>         0.0000
     42 H18        -1.0853   -1.7333    0.0000 HC        1 <0>         0.0000
     43 H19         3.2027    0.7099    0.0000 HC        1 <0>         0.0000
     44 H20         3.2027    0.7099    0.0000 HC        1 <0>         0.0000
     45 H21        -2.5158   -0.0832    0.0000 H4        1 <0>         0.0000
     46 H22         3.1744    1.5879    0.0000 HC        1 <0>         0.0000
     47 H23         3.1744    1.5879    0.0000 HC        1 <0>         0.0000
     48 H24         3.1744    1.5879    0.0000 HC        1 <0>         0.0000
     49 H25         2.5052    2.1722    0.0000 HO        1 <0>         0.0000
     50 H26        -3.2345   -0.4976    0.0000 HO        1 <0>         0.0000
     51 H27         1.7793    1.5772    0.0000 HC        1 <0>         0.0000
     52 H28         1.7793    1.5772    0.0000 HC        1 <0>         0.0000
     53 H29         1.7793    1.5772    0.0000 HC        1 <0>         0.0000
     54 H30        -0.3735    0.3519    0.0000 HC        1 <0>         0.0000
     55 H31        -0.3735    0.3519    0.0000 HC        1 <0>         0.0000
     56 H32        -0.3735    0.3519    0.0000 HC        1 <0>         0.0000
@<TRIPOS>BOND
     1    1    2 1
     2    1    3 1
     3    1    4 1
     4    2    5 1
     5    2    6 1
     6    3    7 1
     7    3    8 1
     8    4    9 1
     9    5   10 1
    10    5   11 1
    11    6   12 1
    12    7   13 1
    13    8   14 1
    14   10   15 1
    15   11   16 1
    16   13   17 1
    17   14   18 2
    18   15   19 1
    19   15   20 1
    20   17   21 2
    21   18   22 1
    22    7   12 1
    23    9   10 1
    24   14   17 1
    25   15   16 1
    26   10   23 1
    27    2   24 1
    28    3   25 1
    29    7   26 1
    30    1   27 1
    31    5   28 1
    32    4   29 1
    33    4   30 1
    34    6   31 1
    35    6   32 1
    36    8   33 1
    37    8   34 1
    38    9   35 1
    39    9   36 1
    40   11   37 1
    41   11   38 1
    42   12   39 1
    43   12   40 1
    44   13   41 1
    45   13   42 1
    46   16   43 1
    47   16   44 1
    48   18   45 1
    49   19   46 1
    50   19   47 1
    51   19   48 1
    52   20   49 1
    53   22   50 1
    54   23   51 1
    55   23   52 1
    56   23   53 1
    57   25   54 1
    58   25   55 1
    59   25   56 1
@<TRIPOS>MOLECULE
71388
  137   139     0     0     0
SMALL
NO_CHARGES

@<TRIPOS>ATOM
      1 C1          3.4619   -0.6020    0.0000 CA        1 <0>         0.0000
      2 C2          4.1763   -0.1895    0.0000 CA        1 <0>         0.0000
      3 C3          4.1763    0.6355    0.0000 CA        1 <0>         0.0000
      4 C4          3.4619    1.0480    0.0000 CA        1 <0>         0.0000
      5 C5          2.7474    0.6355    0.0000 CA        1 <0>         0.0000
      6 C6          2.7474   -0.1895    0.0000 CA        1 <0>         0.0000
      7 O1          3.4619   -1.4270    0.0000 OS        1 <0>         0.0000
      8 C7          2.7474   -1.8395    0.0000 CT        1 <0>         0.0000
      9 C8          2.7474   -2.6645    0.0000 CT        1 <0>         0.0000
     10 O2          2.0329   -3.0770    0.0000 OH        1 <0>         0.0000
     11 H1          1.3184   -2.6645    0.0000 HO        1 <0>         0.0000
     12 C9          3.4619    1.8730    0.0000 CT        1 <0>         0.0000
     13 C10         2.6369    1.8730    0.0000 CT        1 <0>         0.0000
     14 C11         4.2869    1.8730    0.0000 CT        1 <0>         0.0000
     15 C12         3.4619    2.6980    0.0000 CT        1 <0>         0.0000
     16 C13         2.7474    3.1105    0.0000 CT        1 <0>         0.0000
     17 C14         2.0329    3.5230    0.0000 CT        1 <0>         0.0000
     18 C15         3.1599    3.8250    0.0000 CT        1 <0>         0.0000
     19 C16         2.3349    2.3961    0.0000 CT        1 <0>         0.0000
     20 C17         2.0329   -0.6020    0.0000 CT        1 <0>         0.0000
     21 C18        -0.1186   -0.6129    0.0000 CA        1 <0>         0.0000
     22 C19         0.5959   -0.2004    0.0000 CA        1 <0>         0.0000
     23 C20         0.5959    0.6246    0.0000 CA        1 <0>         0.0000
     24 C21        -0.1186    1.0371    0.0000 CA        1 <0>         0.0000
     25 C22        -0.8331    0.6246    0.0000 CA        1 <0>         0.0000
     26 C23        -0.8331   -0.2004    0.0000 CA        1 <0>         0.0000
     27 O3         -0.1186   -1.4379    0.0000 OS        1 <0>         0.0000
     28 C24        -0.8331   -1.8504    0.0000 CT        1 <0>         0.0000
     29 C25        -0.8331   -2.6754    0.0000 CT        1 <0>         0.0000
     30 O4         -1.5476   -3.0879    0.0000 OH        1 <0>         0.0000
     31 H2         -2.2620   -2.6754    0.0000 HO        1 <0>         0.0000
     32 C26        -0.1186    1.8621    0.0000 CT        1 <0>         0.0000
     33 C27        -0.9436    1.8621    0.0000 CT        1 <0>         0.0000
     34 C28         0.7064    1.8621    0.0000 CT        1 <0>         0.0000
     35 C29        -0.1186    2.6871    0.0000 CT        1 <0>         0.0000
     36 C30        -0.8331    3.0996    0.0000 CT        1 <0>         0.0000
     37 C31        -1.5476    3.5121    0.0000 CT        1 <0>         0.0000
     38 C32        -0.4206    3.8141    0.0000 CT        1 <0>         0.0000
     39 C33        -1.2456    2.3852    0.0000 CT        1 <0>         0.0000
     40 C34        -1.5476   -0.6129    0.0000 CT        1 <0>         0.0000
     41 C35         7.3948   -0.4361    0.0000 CA        1 <0>         0.0000
     42 C36         8.1092   -0.0236    0.0000 CA        1 <0>         0.0000
     43 C37         8.1092    0.8014    0.0000 CA        1 <0>         0.0000
     44 C38         7.3948    1.2139    0.0000 CA        1 <0>         0.0000
     45 C39         6.6803    0.8014    0.0000 CA        1 <0>         0.0000
     46 C40         6.6803   -0.0236    0.0000 CA        1 <0>         0.0000
     47 O5          7.3948   -1.2611    0.0000 OS        1 <0>         0.0000
     48 C41         6.6803   -1.6736    0.0000 CT        1 <0>         0.0000
     49 C42         6.6803   -2.4986    0.0000 CT        1 <0>         0.0000
     50 O6          5.9658   -2.9111    0.0000 OH        1 <0>         0.0000
     51 H3          5.2514   -2.4986    0.0000 HO        1 <0>         0.0000
     52 C43         7.3948    2.0389    0.0000 CT        1 <0>         0.0000
     53 C44         6.5698    2.0389    0.0000 CT        1 <0>         0.0000
     54 C45         8.2198    2.0389    0.0000 CT        1 <0>         0.0000
     55 C46         7.3948    2.8639    0.0000 CT        1 <0>         0.0000
     56 C47         6.6803    3.2764    0.0000 CT        1 <0>         0.0000
     57 C48         5.9658    3.6889    0.0000 CT        1 <0>         0.0000
     58 C49         7.0928    3.9909    0.0000 CT        1 <0>         0.0000
     59 C50         6.2678    2.5620    0.0000 CT        1 <0>         0.0000
     60 C51         5.9658   -0.4361    0.0000 CT        1 <0>         0.0000
     61 H4          4.1763    0.6355    0.0000 HA        1 <0>         0.0000
     62 H5          2.7474    0.6355    0.0000 HA        1 <0>         0.0000
     63 H6          2.7474   -1.8395    0.0000 H1        1 <0>         0.0000
     64 H7          2.7474   -1.8395    0.0000 H1        1 <0>         0.0000
     65 H8          2.7474   -2.6645    0.0000 H1        1 <0>         0.0000
     66 H9          2.7474   -2.6645    0.0000 H1        1 <0>         0.0000
     67 H10         2.6369    1.8730    0.0000 HC        1 <0>         0.0000
     68 H11         2.6369    1.8730    0.0000 HC        1 <0>         0.0000
     69 H12         2.6369    1.8730    0.0000 HC        1 <0>         0.0000
     70 H13         4.2869    1.8730    0.0000 HC        1 <0>         0.0000
     71 H14         4.2869    1.8730    0.0000 HC        1 <0>         0.0000
     72 H15         4.2869    1.8730    0.0000 HC        1 <0>         0.0000
     73 H16         3.4619    2.6980    0.0000 HC        1 <0>         0.0000
     74 H17         3.4619    2.6980    0.0000 HC        1 <0>         0.0000
     75 H18         2.0329    3.5230    0.0000 HC        1 <0>         0.0000
     76 H19         2.0329    3.5230    0.0000 HC        1 <0>         0.0000
     77 H20         2.0329    3.5230    0.0000 HC        1 <0>         0.0000
     78 H21         3.1599    3.8250    0.0000 HC        1 <0>         0.0000
     79 H22         3.1599    3.8250    0.0000 HC        1 <0>         0.0000
     80 H23         3.1599    3.8250    0.0000 HC        1 <0>         0.0000
     81 H24         2.3349    2.3961    0.0000 HC        1 <0>         0.0000
     82 H25         2.3349    2.3961    0.0000 HC        1 <0>         0.0000
     83 H26         2.3349    2.3961    0.0000 HC        1 <0>         0.0000
     84 H27         2.0329   -0.6020    0.0000 HC        1 <0>         0.0000
     85 H28         2.0329   -0.6020    0.0000 HC        1 <0>         0.0000
     86 H29         0.5959    0.6246    0.0000 HA        1 <0>         0.0000
     87 H30        -0.8331    0.6246    0.0000 HA        1 <0>         0.0000
     88 H31        -0.8331   -1.8504    0.0000 H1        1 <0>         0.0000
     89 H32        -0.8331   -1.8504    0.0000 H1        1 <0>         0.0000
     90 H33        -0.8331   -2.6754    0.0000 H1        1 <0>         0.0000
     91 H34        -0.8331   -2.6754    0.0000 H1        1 <0>         0.0000
     92 H35        -0.9436    1.8621    0.0000 HC        1 <0>         0.0000
     93 H36        -0.9436    1.8621    0.0000 HC        1 <0>         0.0000
     94 H37        -0.9436    1.8621    0.0000 HC        1 <0>         0.0000
     95 H38         0.7064    1.8621    0.0000 HC        1 <0>         0.0000
     96 H39         0.7064    1.8621    0.0000 HC        1 <0>         0.0000
     97 H40         0.7064    1.8621    0.0000 HC        1 <0>         0.0000
     98 H41        -0.1186    2.6871    0.0000 HC        1 <0>         0.0000
     99 H42        -0.1186    2.6871    0.0000 HC        1 <0>         0.0000
    100 H43        -1.5476    3.5121    0.0000 HC        1 <0>         0.0000
    101 H44        -1.5476    3.5121    0.0000 HC        1 <0>         0.0000
    102 H45        -1.5476    3.5121    0.0000 HC        1 <0>         0.0000
    103 H46        -0.4206    3.8141    0.0000 HC        1 <0>         0.0000
    104 H47        -0.4206    3.8141    0.0000 HC        1 <0>         0.0000
    105 H48        -0.4206    3.8141    0.0000 HC        1 <0>         0.0000
    106 H49        -1.2456    2.3852    0.0000 HC        1 <0>         0.0000
    107 H50        -1.2456    2.3852    0.0000 HC        1 <0>         0.0000
    108 H51        -1.2456    2.3852    0.0000 HC        1 <0>         0.0000
    109 H52        -1.5476   -0.6129    0.0000 HC        1 <0>         0.0000
    110 H53        -1.5476   -0.6129    0.0000 HC        1 <0>         0.0000
    111 H54        -1.5476   -0.6129    0.0000 HC        1 <0>         0.0000
    112 H55         8.1092   -0.0236    0.0000 HA        1 <0>         0.0000
    113 H56         8.1092    0.8014    0.0000 HA        1 <0>         0.0000
    114 H57         6.6803    0.8014    0.0000 HA        1 <0>         0.0000
    115 H58         6.6803   -1.6736    0.0000 H1        1 <0>         0.0000
    116 H59         6.6803   -1.6736    0.0000 H1        1 <0>         0.0000
    117 H60         6.6803   -2.4986    0.0000 H1        1 <0>         0.0000
    118 H61         6.6803   -2.4986    0.0000 H1        1 <0>         0.0000
    119 H62         6.5698    2.0389    0.0000 HC        1 <0>         0.0000
    120 H63         6.5698    2.0389    0.0000 HC        1 <0>         0.0000
    121 H64         6.5698    2.0389    0.0000 HC        1 <0>         0.0000
    122 H65         8.2198    2.0389    0.0000 HC        1 <0>         0.0000
    123 H66         8.2198    2.0389    0.0000 HC        1 <0>         0.0000
    124 H67         8.2198    2.0389    0.0000 HC        1 <0>         0.0000
    125 H68         7.3948    2.8639    0.0000 HC        1 <0>         0.0000
    126 H69         7.3948    2.8639    0.0000 HC        1 <0>         0.0000
    127 H70         5.9658    3.6889    0.0000 HC        1 <0>         0.0000
    128 H71         5.9658    3.6889    0.0000 HC        1 <0>         0.0000
    129 H72         5.9658    3.6889    0.0000 HC        1 <0>         0.0000
    130 H73         7.0928    3.9909    0.0000 HC        1 <0>         0.0000
    131 H74         7.0928    3.9909    0.0000 HC        1 <0>         0.0000
    132 H75         7.0928    3.9909    0.0000 HC        1 <0>         0.0000
    133 H76         6.2678    2.5620    0.0000 HC        1 <0>         0.0000
    134 H77         6.2678    2.5620    0.0000 HC        1 <0>         0.0000
    135 H78         6.2678    2.5620    0.0000 HC        1 <0>         0.0000
    136 H79         5.9658   -0.4361    0.0000 HC        1 <0>         0.0000
    137 H80         5.9658   -0.4361    0.0000 HC        1 <0>         0.0000
@<TRIPOS>BOND
     1    1    2 ar
     2    2    3 ar
     3    3    4 ar
     4    4    5 ar
     5    5    6 ar
     6    1    6 ar
     7    1    7 1
     8    7    8 1
     9    8    9 1
    10    9   10 1
    11   10   11 1
    12    4   12 1
    13   12   13 1
    14   12   14 1
    15   12   15 1
    16   15   16 1
    17   16   17 1
    18   16   18 1
    19   16   19 1
    20    6   20 1
    21   21   22 ar
    22   22   23 ar
    23   23   24 ar
    24   24   25 ar
    25   25   26 ar
    26   21   26 ar
    27   21   27 1
    28   27   28 1
    29   28   29 1
    30   29   30 1
    31   30   31 1
    32   24   32 1
    33   32   33 1
    34   32   34 1
    35   32   35 1
    36   35   36 1
    37   36   37 1
    38   36   38 1
    39   36   39 1
    40   26   40 1
    41   20   22 1
    42   41   42 ar
    43   42   43 ar
    44   43   44 ar
    45   44   45 ar
    46   45   46 ar
    47   41   46 ar
    48   41   47 1
    49   47   48 1
    50   48   49 1
    51   49   50 1
    52   50   51 1
    53   44   52 1
    54   52   53 1
    55   52   54 1
    56   52   55 1
    57   55   56 1
    58   56   57 1
    59   56   58 1
    60   56   59 1
    61   46   60 1
    62    2   60 1
    63    3   61 1
    64    5   62 1
    65    8   63 1
    66    8   64 1
    67    9   65 1
    68    9   66 1
    69   13   67 1
    70   13   68 1
    71   13   69 1
    72   14   70 1
    73   14   71 1
    74   14   72 1
    75   15   73 1
    76   15   74 1
    77   17   75 1
    78   17   76 1
    79   17   77 1
    80   18   78 1
    81   18   79 1
    82   18   80 1
    83   19   81 1
    84   19   82 1
    85   19   83 1
    86   20   84 1
    87   20   85 1
    88   23   86 1
    89   25   87 1
    90   28   88 1
    91   28   89 1
    92   29   90 1
    93   29   91 1
    94   33   92 1
    95   33   93 1
    96   33   94 1
    97   34   95 1
    98   34   96 1
    99   34   97 1
   100   35   98 1
   101   35   99 1
   102   37  100 1
   103   37  101 1
   104   37  102 1
   105   38  103 1
   106   38  104 1
   107   38  105 1
   108   39  106 1
   109   39  107 1
   110   39  108 1
   111   40  109 1
   112   40  110 1
   113   40  111 1
   114   42  112 1
   115   43  113 1
   116   45  114 1
   117   48  115 1
   118   48  116 1
   119   49  117 1
   120   49  118 1
   121   53  119 1
   122   53  120 1
   123   53  121 1
   124   54  122 1
   125   54  123 1
   126   54  124 1
   127   55  125 1
   128   55  126 1
   129   57  127 1
   130   57  128 1
   131   57  129 1
   132   58  130 1
   133   58  131 1
   134   58  132 1
   135   59  133 1
   136   59  134 1
   137   59  135 1
   138   60  136 1
   139   60  137 1
@<TRIPOS>MOLECULE
*****
   98   102     0     0     0
SMALL
NO_CHARGES

@<TRIPOS>ATOM
      1 O1          5.6617   -2.2185    0.0000 OS        1 <0>         0.0000
      2 O2         13.0237    0.3274    0.0000 OH        1 <0>         0.0000
      3 O3         12.3189   -0.9154    0.0000 O         1 <0>         0.0000
      4 O4          4.9522   -0.9785    0.0000 O         1 <0>         0.0000
      5 O5          2.0916   -1.7924    0.0000 OH        1 <0>         0.0000
      6 O6          2.8107   -0.5577    0.0000 O         1 <0>         0.0000
      7 C1          9.3960   -0.9381    0.0000 CT        1 <0>         0.0000
      8 C2         10.1103   -0.5256    0.0000 CT        1 <0>         0.0000
      9 C3          8.6815   -0.5256    0.0000 CT        1 <0>         0.0000
     10 C4         10.1103    0.2993    0.0000 CT        1 <0>         0.0000
     11 C5          7.9309   -0.9438    0.0000 CT        1 <0>         0.0000
     12 C6         10.8476    0.7402    0.0000 CT        1 <0>         0.0000
     13 C7          7.9243   -1.8029    0.0000 CT        1 <0>         0.0000
     14 C8         11.5950    0.3165    0.0000 CT        1 <0>         0.0000
     15 C9          9.4092   -1.7972    0.0000 CT        1 <0>         0.0000
     16 C10         8.6815    0.2993    0.0000 CT        1 <0>         0.0000
     17 C11        10.8476   -0.9667    0.0000 CT        1 <0>         0.0000
     18 C12         9.3960    0.7117    0.0000 CT        1 <0>         0.0000
     19 C13         8.6684   -2.2325    0.0000 CT        1 <0>         0.0000
     20 C14        11.5950   -0.5428    0.0000 CT        1 <0>         0.0000
     21 C15         7.1527   -2.2563    0.0000 CT        1 <0>         0.0000
     22 C16        11.0209    1.5766    0.0000 CT        1 <0>         0.0000
     23 C17         7.1664   -0.4784    0.0000 CT        1 <0>         0.0000
     24 C18         9.9262   -1.5700    0.0000 CT        1 <0>         0.0000
     25 C19        10.3925   -1.3007    0.0000 CT        1 <0>         0.0000
     26 C20        12.2238    0.8944    0.0000 CT        1 <0>         0.0000
     27 C21        11.8698    1.6717    0.0000 CT        1 <0>         0.0000
     28 C22         7.9373   -0.1189    0.0000 CT        1 <0>         0.0000
     29 C23         6.3777   -1.8089    0.0000 CT        1 <0>         0.0000
     30 C24         6.3845   -0.9140    0.0000 CT        1 <0>         0.0000
     31 C25        12.3126   -0.0905    0.0000 C         1 <0>         0.0000
     32 C26         7.5680   -2.9691    0.0000 CT        1 <0>         0.0000
     33 C27         6.7431   -2.9723    0.0000 CT        1 <0>         0.0000
     34 C28        10.4654    2.1863    0.0000 CM        1 <0>         0.0000
     35 C29        10.7155    2.9723    0.0000 CT        1 <0>         0.0000
     36 C30         9.6596    2.0099    0.0000 CM        1 <0>         0.0000
     37 C31         4.9490   -1.8034    0.0000 C         1 <0>         0.0000
     38 C32         4.2331   -2.2130    0.0000 CT        1 <0>         0.0000
     39 C33         3.5203   -1.7979    0.0000 CT        1 <0>         0.0000
     40 C34         3.9355   -1.0852    0.0000 CT        1 <0>         0.0000
     41 C35         3.1051   -2.5107    0.0000 CT        1 <0>         0.0000
     42 C36         2.8076   -1.3826    0.0000 C         1 <0>         0.0000
     43 H1          9.2531   -0.1957    0.0000 HC        1 <0>         0.0000
     44 H2         10.1052    0.9591    0.0000 HC        1 <0>         0.0000
     45 H3         10.3098    1.1226    0.0000 HC        1 <0>         0.0000
     46 H4          7.9269   -2.4628    0.0000 HC        1 <0>         0.0000
     47 H5         13.0237    0.3274    0.0000 HO        1 <0>         0.0000
     48 H6          2.0916   -1.7924    0.0000 HO        1 <0>         0.0000
     49 H7          9.4092   -1.7972    0.0000 HC        1 <0>         0.0000
     50 H8          9.4092   -1.7972    0.0000 HC        1 <0>         0.0000
     51 H9          8.6815    0.2993    0.0000 HC        1 <0>         0.0000
     52 H10         8.6815    0.2993    0.0000 HC        1 <0>         0.0000
     53 H11        10.8476   -0.9667    0.0000 HC        1 <0>         0.0000
     54 H12        10.8476   -0.9667    0.0000 HC        1 <0>         0.0000
     55 H13         9.3960    0.7117    0.0000 HC        1 <0>         0.0000
     56 H14         9.3960    0.7117    0.0000 HC        1 <0>         0.0000
     57 H15         8.6684   -2.2325    0.0000 HC        1 <0>         0.0000
     58 H16         8.6684   -2.2325    0.0000 HC        1 <0>         0.0000
     59 H17        11.5950   -0.5428    0.0000 HC        1 <0>         0.0000
     60 H18        11.5950   -0.5428    0.0000 HC        1 <0>         0.0000
     61 H19        11.0209    1.5766    0.0000 HC        1 <0>         0.0000
     62 H20         7.1664   -0.4784    0.0000 HC        1 <0>         0.0000
     63 H21         7.1664   -0.4784    0.0000 HC        1 <0>         0.0000
     64 H22         9.9262   -1.5700    0.0000 HC        1 <0>         0.0000
     65 H23         9.9262   -1.5700    0.0000 HC        1 <0>         0.0000
     66 H24         9.9262   -1.5700    0.0000 HC        1 <0>         0.0000
     67 H25        10.3925   -1.3007    0.0000 HC        1 <0>         0.0000
     68 H26        10.3925   -1.3007    0.0000 HC        1 <0>         0.0000
     69 H27        10.3925   -1.3007    0.0000 HC        1 <0>         0.0000
     70 H28        12.2238    0.8944    0.0000 HC        1 <0>         0.0000
     71 H29        12.2238    0.8944    0.0000 HC        1 <0>         0.0000
     72 H30        11.8698    1.6717    0.0000 HC        1 <0>         0.0000
     73 H31        11.8698    1.6717    0.0000 HC        1 <0>         0.0000
     74 H32         7.9373   -0.1189    0.0000 HC        1 <0>         0.0000
     75 H33         7.9373   -0.1189    0.0000 HC        1 <0>         0.0000
     76 H34         7.9373   -0.1189    0.0000 HC        1 <0>         0.0000
     77 H35         6.3777   -1.8089    0.0000 H1        1 <0>         0.0000
     78 H36         6.3845   -0.9140    0.0000 HC        1 <0>         0.0000
     79 H37         6.3845   -0.9140    0.0000 HC        1 <0>         0.0000
     80 H38         7.5680   -2.9691    0.0000 HC        1 <0>         0.0000
     81 H39         7.5680   -2.9691    0.0000 HC        1 <0>         0.0000
     82 H40         7.5680   -2.9691    0.0000 HC        1 <0>         0.0000
     83 H41         6.7431   -2.9723    0.0000 HC        1 <0>         0.0000
     84 H42         6.7431   -2.9723    0.0000 HC        1 <0>         0.0000
     85 H43         6.7431   -2.9723    0.0000 HC        1 <0>         0.0000
     86 H44        10.7155    2.9723    0.0000 HC        1 <0>         0.0000
     87 H45        10.7155    2.9723    0.0000 HC        1 <0>         0.0000
     88 H46        10.7155    2.9723    0.0000 HC        1 <0>         0.0000
     89 H47         9.6596    2.0099    0.0000 HA        1 <0>         0.0000
     90 H48         9.6596    2.0099    0.0000 HA        1 <0>         0.0000
     91 H49         4.2331   -2.2130    0.0000 HC        1 <0>         0.0000
     92 H50         4.2331   -2.2130    0.0000 HC        1 <0>         0.0000
     93 H51         3.9355   -1.0852    0.0000 HC        1 <0>         0.0000
     94 H52         3.9355   -1.0852    0.0000 HC        1 <0>         0.0000
     95 H53         3.9355   -1.0852    0.0000 HC        1 <0>         0.0000
     96 H54         3.1051   -2.5107    0.0000 HC        1 <0>         0.0000
     97 H55         3.1051   -2.5107    0.0000 HC        1 <0>         0.0000
     98 H56         3.1051   -2.5107    0.0000 HC        1 <0>         0.0000
@<TRIPOS>BOND
     1    1   29 1
     2    1   37 1
     3    2   31 1
     4    3   31 2
     5    4   37 2
     6    5   42 1
     7    6   42 2
     8    7    8 1
     9    7    9 1
    10    7   15 1
    11    7   24 1
    12    8   10 1
    13    8   17 1
    14    8   25 1
    15    9   11 1
    16    9   16 1
    17    9   43 1
    18   10   12 1
    19   10   18 1
    20   10   44 1
    21   11   13 1
    22   11   23 1
    23   11   28 1
    24   12   14 1
    25   12   22 1
    26   12   45 1
    27   13   19 1
    28   13   21 1
    29   13   46 1
    30   14   20 1
    31   14   26 1
    32   14   31 1
    33   15   19 1
    34   16   18 1
    35   17   20 1
    36   21   29 1
    37   21   32 1
    38   21   33 1
    39   22   27 1
    40   22   34 1
    41   23   30 1
    42   26   27 1
    43   29   30 1
    44   34   35 1
    45   34   36 2
    46   37   38 1
    47   38   39 1
    48   39   40 1
    49   39   41 1
    50   39   42 1
    51    2   47 1
    52    5   48 1
    53   15   49 1
    54   15   50 1
    55   16   51 1
    56   16   52 1
    57   17   53 1
    58   17   54 1
    59   18   55 1
    60   18   56 1
    61   19   57 1
    62   19   58 1
    63   20   59 1
    64   20   60 1
    65   22   61 1
    66   23   62 1
    67   23   63 1
    68   24   64 1
    69   24   65 1
    70   24   66 1
    71   25   67 1
    72   25   68 1
    73   25   69 1
    74   26   70 1
    75   26   71 1
    76   27   72 1
    77   27   73 1
    78   28   74 1
    79   28   75 1
    80   28   76 1
    81   29   77 1
    82   30   78 1
    83   30   79 1
    84   32   80 1
    85   32   81 1
    86   32   82 1
    87   33   83 1
    88   33   84 1
    89   33   85 1
    90   35   86 1
    91   35   87 1
    92   35   88 1
    93   36   89 1
    94   36   90 1
    95   38   91 1
    96   38   92 1
    97   40   93 1
    98   40   94 1
    99   40   95 1
   100   41   96 1
   101   41   97 1
   102   41   98 1
@<TRIPOS>MOLECULE
*****
   62    64     0     0     0
SMALL
NO_CHARGES

@<TRIPOS>ATOM
      1 C1          1.3400   -2.2924    0.0000 CM        1 <0>         0.0000
      2 C2          1.3585   -1.4647    0.0000 CT        1 <0>         0.0000
      3 C3          0.6540   -1.0364    0.0000 CT        1 <0>         0.0000
      4 C4          0.6167   -2.6963    0.0000 CM        1 <0>         0.0000
      5 C5         -0.0906   -2.2604    0.0000 CM        1 <0>         0.0000
      6 C6         -0.0739   -1.4325    0.0000 CT        1 <0>         0.0000
      7 C7         -0.7792   -1.0058    0.0000 CT        1 <0>         0.0000
      8 C8         -1.5047   -1.4035    0.0000 CT        1 <0>         0.0000
      9 C9         -1.5214   -2.2313    0.0000 CT        1 <0>         0.0000
     10 C10        -0.8129   -2.6612    0.0000 CM        1 <0>         0.0000
     11 C11         2.0815   -1.0683    0.0000 CT        1 <0>         0.0000
     12 H1         -0.0448   -0.6111    0.0000 HC        1 <0>         0.0000
     13 O1         -0.7606   -0.1810    0.0000 OS        1 <0>         0.0000
     14 C12        -1.4652    0.2472    0.0000 C         1 <0>         0.0000
     15 C13         0.6748   -0.2117    0.0000 CT        1 <0>         0.0000
     16 C14         1.3990    0.1825    0.0000 CT        1 <0>         0.0000
     17 C15         1.4198    1.0070    0.0000 CT        1 <0>         0.0000
     18 C16         1.4651    2.6566    0.0000 CT        1 <0>         0.0000
     19 C17         0.7387    2.2637    0.0000 CT        1 <0>         0.0000
     20 C18         0.7143    1.4365    0.0000 CT        1 <0>         0.0000
     21 O2          2.1439    1.4020    0.0000 OS        1 <0>         0.0000
     22 O3          0.0366    2.6963    0.0000 OH        1 <0>         0.0000
     23 O4         -1.4464    1.0718    0.0000 O         1 <0>         0.0000
     24 C19        -2.1887   -0.1487    0.0000 CT        1 <0>         0.0000
     25 C20        -2.8935    0.2797    0.0000 CT        1 <0>         0.0000
     26 C21        -2.2075   -0.9733    0.0000 CT        1 <0>         0.0000
     27 C22        -2.8747    1.1045    0.0000 CT        1 <0>         0.0000
     28 C23         2.1678    2.2246    0.0000 C         1 <0>         0.0000
     29 O5          2.8935    2.6166    0.0000 O         1 <0>         0.0000
     30 H2          1.3400   -2.2924    0.0000 HA        1 <0>         0.0000
     31 H3          1.3585   -1.4647    0.0000 HC        1 <0>         0.0000
     32 H4          0.6540   -1.0364    0.0000 HC        1 <0>         0.0000
     33 H5          0.6167   -2.6963    0.0000 HA        1 <0>         0.0000
     34 H6         -0.7792   -1.0058    0.0000 H1        1 <0>         0.0000
     35 H7         -1.5047   -1.4035    0.0000 HC        1 <0>         0.0000
     36 H8         -1.5047   -1.4035    0.0000 HC        1 <0>         0.0000
     37 H9         -1.5214   -2.2313    0.0000 HC        1 <0>         0.0000
     38 H10        -1.5214   -2.2313    0.0000 HC        1 <0>         0.0000
     39 H11        -0.8129   -2.6612    0.0000 HA        1 <0>         0.0000
     40 H12         2.0815   -1.0683    0.0000 HC        1 <0>         0.0000
     41 H13         2.0815   -1.0683    0.0000 HC        1 <0>         0.0000
     42 H14         2.0815   -1.0683    0.0000 HC        1 <0>         0.0000
     43 H15         0.6748   -0.2117    0.0000 HC        1 <0>         0.0000
     44 H16         0.6748   -0.2117    0.0000 HC        1 <0>         0.0000
     45 H17         1.3990    0.1825    0.0000 HC        1 <0>         0.0000
     46 H18         1.3990    0.1825    0.0000 HC        1 <0>         0.0000
     47 H19         1.4198    1.0070    0.0000 H1        1 <0>         0.0000
     48 H20         1.4651    2.6566    0.0000 HC        1 <0>         0.0000
     49 H21         1.4651    2.6566    0.0000 HC        1 <0>         0.0000
     50 H22         0.7387    2.2637    0.0000 H1        1 <0>         0.0000
     51 H23         0.7143    1.4365    0.0000 HC        1 <0>         0.0000
     52 H24         0.7143    1.4365    0.0000 HC        1 <0>         0.0000
     53 H25         0.0366    2.6963    0.0000 HO        1 <0>         0.0000
     54 H26        -2.1887   -0.1487    0.0000 HC        1 <0>         0.0000
     55 H27        -2.8935    0.2797    0.0000 HC        1 <0>         0.0000
     56 H28        -2.8935    0.2797    0.0000 HC        1 <0>         0.0000
     57 H29        -2.2075   -0.9733    0.0000 HC        1 <0>         0.0000
     58 H30        -2.2075   -0.9733    0.0000 HC        1 <0>         0.0000
     59 H31        -2.2075   -0.9733    0.0000 HC        1 <0>         0.0000
     60 H32        -2.8747    1.1045    0.0000 HC        1 <0>         0.0000
     61 H33        -2.8747    1.1045    0.0000 HC        1 <0>         0.0000
     62 H34        -2.8747    1.1045    0.0000 HC        1 <0>         0.0000
@<TRIPOS>BOND
     1    2   11 1
     2    6   12 1
     3    7   13 1
     4   13   14 1
     5    3   15 1
     6   15   16 1
     7   16   17 1
     8    1    2 1
     9    1    4 2
    10   17   20 1
    11   18   19 1
    12   19   20 1
    13    2    3 1
    14   17   21 1
    15    3    6 1
    16   19   22 1
    17    4    5 1
    18   14   23 2
    19    5    6 1
    20   14   24 1
    21    5   10 2
    22   24   25 1
    23    6    7 1
    24   24   26 1
    25    7    8 1
    26   25   27 1
    27    8    9 1
    28   18   28 1
    29   21   28 1
    30    9   10 1
    31   28   29 2
    32    1   30 1
    33    2   31 1
    34    3   32 1
    35    4   33 1
    36    7   34 1
    37    8   35 1
    38    8   36 1
    39    9   37 1
    40    9   38 1
    41   10   39 1
    42   11   40 1
    43   11   41 1
    44   11   42 1
    45   15   43 1
    46   15   44 1
    47   16   45 1
    48   16   46 1
    49   17   47 1
    50   18   48 1
    51   18   49 1
    52   19   50 1
    53   20   51 1
    54   20   52 1
    55   22   53 1
    56   24   54 1
    57   25   55 1
    58   25   56 1
    59   26   57 1
    60   26   58 1
    61   26   59 1
    62   27   60 1
    63   27   61 1
    64   27   62 1
@<TRIPOS>MOLECULE
*****
   47    50     0     0     0
SMALL
NO_CHARGES

@<TRIPOS>ATOM
      1 C1         16.4957  -10.5233    0.0000 CT        1 <0>         0.0000
      2 C2         15.7811  -10.9341    0.0000 CT        1 <0>         0.0000
      3 C3         17.2171  -10.9410    0.0000 CT        1 <0>         0.0000
      4 C4         16.4992   -9.7017    0.0000 CT        1 <0>         0.0000
      5 O1         15.5532  -10.4473    0.0000 OS        1 <0>         0.0000
      6 O2         15.0078  -10.6303    0.0000 OS        1 <0>         0.0000
      7 O3         15.7846  -11.7695    0.0000 OS        1 <0>         0.0000
      8 C5         17.2171  -11.7695    0.0000 CT        1 <0>         0.0000
      9 C6         17.9282  -10.5267    0.0000 CT        1 <0>         0.0000
     10 C7         17.2171   -9.2874    0.0000 CT        1 <0>         0.0000
     11 C8         16.0573   -9.0942    0.0000 CT        1 <0>         0.0000
     12 O4         15.5567   -9.6223    0.0000 OS        1 <0>         0.0000
     13 C9         14.7627   -9.8397    0.0000 CT        1 <0>         0.0000
     14 C10        16.4992  -12.1837    0.0000 CT        1 <0>         0.0000
     15 C11        17.9317  -12.1803    0.0000 CT        1 <0>         0.0000
     16 C12        17.9282   -9.7017    0.0000 CT        1 <0>         0.0000
     17 C13        17.2171   -8.4625    0.0000 CT        1 <0>         0.0000
     18 C14        15.2288   -9.0769    0.0000 CT        1 <0>         0.0000
     19 C15        13.9446   -9.8397    0.0000 CT        1 <0>         0.0000
     20 O5         16.5026  -13.0087    0.0000 OS        1 <0>         0.0000
     21 H1         15.0596  -11.3414    0.0000 H2        1 <0>         0.0000
     22 H2         17.9248  -11.3518    0.0000 HC        1 <0>         0.0000
     23 H3         16.4957   -8.8766    0.0000 HC        1 <0>         0.0000
     24 C16        15.7806  -13.4294    0.0000 CT        1 <0>         0.0000
     25 H4         17.2171  -11.7695    0.0000 HC        1 <0>         0.0000
     26 H5         17.9282  -10.5267    0.0000 HC        1 <0>         0.0000
     27 H6         17.9282  -10.5267    0.0000 HC        1 <0>         0.0000
     28 H7         17.2171   -9.2874    0.0000 HC        1 <0>         0.0000
     29 H8         16.0573   -9.0942    0.0000 HC        1 <0>         0.0000
     30 H9         16.0573   -9.0942    0.0000 HC        1 <0>         0.0000
     31 H10        16.4992  -12.1837    0.0000 H2        1 <0>         0.0000
     32 H11        17.9317  -12.1803    0.0000 HC        1 <0>         0.0000
     33 H12        17.9317  -12.1803    0.0000 HC        1 <0>         0.0000
     34 H13        17.9317  -12.1803    0.0000 HC        1 <0>         0.0000
     35 H14        17.9282   -9.7017    0.0000 HC        1 <0>         0.0000
     36 H15        17.9282   -9.7017    0.0000 HC        1 <0>         0.0000
     37 H16        17.2171   -8.4625    0.0000 HC        1 <0>         0.0000
     38 H17        17.2171   -8.4625    0.0000 HC        1 <0>         0.0000
     39 H18        17.2171   -8.4625    0.0000 HC        1 <0>         0.0000
     40 H19        15.2288   -9.0769    0.0000 HC        1 <0>         0.0000
     41 H20        15.2288   -9.0769    0.0000 HC        1 <0>         0.0000
     42 H21        13.9446   -9.8397    0.0000 HC        1 <0>         0.0000
     43 H22        13.9446   -9.8397    0.0000 HC        1 <0>         0.0000
     44 H23        13.9446   -9.8397    0.0000 HC        1 <0>         0.0000
     45 H24        15.7806  -13.4294    0.0000 H1        1 <0>         0.0000
     46 H25        15.7806  -13.4294    0.0000 H1        1 <0>         0.0000
     47 H26        15.7806  -13.4294    0.0000 H1        1 <0>         0.0000
@<TRIPOS>BOND
     1    1    2 1
     2    1    3 1
     3    1    4 1
     4    1    5 1
     5    2    6 1
     6    2    7 1
     7    3    8 1
     8    3    9 1
     9    4   10 1
    10    4   11 1
    11    5   12 1
    12    6   13 1
    13    7   14 1
    14    8   15 1
    15    9   16 1
    16   10   17 1
    17   11   18 1
    18   13   19 1
    19   14   20 1
    20    8   14 1
    21   10   16 1
    22   12   13 1
    23   13   18 1
    24    2   21 1
    25    3   22 1
    26    4   23 1
    27   20   24 1
    28    8   25 1
    29    9   26 1
    30    9   27 1
    31   10   28 1
    32   11   29 1
    33   11   30 1
    34   14   31 1
    35   15   32 1
    36   15   33 1
    37   15   34 1
    38   16   35 1
    39   16   36 1
    40   17   37 1
    41   17   38 1
    42   17   39 1
    43   18   40 1
    44   18   41 1
    45   19   42 1
    46   19   43 1
    47   19   44 1
    48   24   45 1
    49   24   46 1
    50   24   47 1
@<TRIPOS>MOLECULE
[NO NAME]
   52    55     0     0     0
SMALL
NO_CHARGES

Created with ChemWriter - http://chemwriter.com
@<TRIPOS>ATOM
      1 C1         11.5249  -14.3560    0.0000 CT        1 <0>         0.0000
      2 C2         10.0258  -15.3386    0.0000 CT        1 <0>         0.0000
      3 C3         10.0258  -12.8637    0.0000 CT        1 <0>         0.0000
      4 C4         12.0098  -13.6886    0.0000 CT        1 <0>         0.0000
      5 C5          9.3113  -13.2761    0.0000 CT        1 <0>         0.0000
      6 C6          7.8824  -14.1011    0.0000 CT        1 <0>         0.0000
      7 C7          7.8824  -15.7511    0.0000 CM        1 <0>         0.0000
      8 C8         10.0258  -14.5136    0.0000 CT        1 <0>         0.0000
      9 H1         10.0258  -13.6886    0.0000 HC        1 <0>         0.0000
     10 C9          9.3113  -14.1011    0.0000 CT        1 <0>         0.0000
     11 H2          9.3113  -14.9261    0.0000 HC        1 <0>         0.0000
     12 C10        10.7402  -13.2761    0.0000 CT        1 <0>         0.0000
     13 C11        10.7402  -12.4512    0.0000 CT        1 <0>         0.0000
     14 C12        10.7402  -14.1011    0.0000 CT        1 <0>         0.0000
     15 H3         10.7402  -14.9261    0.0000 HC        1 <0>         0.0000
     16 C13         8.5968  -14.5136    0.0000 CT        1 <0>         0.0000
     17 C14         8.5968  -13.6886    0.0000 CT        1 <0>         0.0000
     18 C15         7.1679  -14.5136    0.0000 CT        1 <0>         0.0000
     19 C16         7.1679  -15.3386    0.0000 C         1 <0>         0.0000
     20 O1          6.4535  -15.7511    0.0000 O         1 <0>         0.0000
     21 C17         8.5968  -15.3386    0.0000 CM        1 <0>         0.0000
     22 C18         9.3113  -15.7511    0.0000 CT        1 <0>         0.0000
     23 C19        11.5249  -13.0212    0.0000 CT        1 <0>         0.0000
     24 C20        12.2393  -13.1423    0.0000 CT        1 <0>         0.0000
     25 O2         11.5249  -12.1962    0.0000 OH        1 <0>         0.0000
     26 H4         11.5249  -14.3560    0.0000 HC        1 <0>         0.0000
     27 H5         11.5249  -14.3560    0.0000 HC        1 <0>         0.0000
     28 H6         10.0258  -15.3386    0.0000 HC        1 <0>         0.0000
     29 H7         10.0258  -15.3386    0.0000 HC        1 <0>         0.0000
     30 H8         10.0258  -12.8637    0.0000 HC        1 <0>         0.0000
     31 H9         10.0258  -12.8637    0.0000 HC        1 <0>         0.0000
     32 H10        12.0098  -13.6886    0.0000 HC        1 <0>         0.0000
     33 H11        12.0098  -13.6886    0.0000 HC        1 <0>         0.0000
     34 H12         9.3113  -13.2761    0.0000 HC        1 <0>         0.0000
     35 H13         9.3113  -13.2761    0.0000 HC        1 <0>         0.0000
     36 H14         7.8824  -14.1011    0.0000 HC        1 <0>         0.0000
     37 H15         7.8824  -14.1011    0.0000 HC        1 <0>         0.0000
     38 H16         7.8824  -15.7511    0.0000 HA        1 <0>         0.0000
     39 H17        10.7402  -12.4512    0.0000 HC        1 <0>         0.0000
     40 H18        10.7402  -12.4512    0.0000 HC        1 <0>         0.0000
     41 H19        10.7402  -12.4512    0.0000 HC        1 <0>         0.0000
     42 H20         8.5968  -13.6886    0.0000 HC        1 <0>         0.0000
     43 H21         8.5968  -13.6886    0.0000 HC        1 <0>         0.0000
     44 H22         8.5968  -13.6886    0.0000 HC        1 <0>         0.0000
     45 H23         7.1679  -14.5136    0.0000 HC        1 <0>         0.0000
     46 H24         7.1679  -14.5136    0.0000 HC        1 <0>         0.0000
     47 H25         9.3113  -15.7511    0.0000 HC        1 <0>         0.0000
     48 H26         9.3113  -15.7511    0.0000 HC        1 <0>         0.0000
     49 H27        12.2393  -13.1423    0.0000 HC        1 <0>         0.0000
     50 H28        12.2393  -13.1423    0.0000 HC        1 <0>         0.0000
     51 H29        12.2393  -13.1423    0.0000 HC        1 <0>         0.0000
     52 H30        11.5249  -12.1962    0.0000 HO        1 <0>         0.0000
@<TRIPOS>BOND
     1    8   14 1
     2   12   14 1
     3    1   14 1
     4    8   10 1
     5    2    8 1
     6   12   23 1
     7    3   12 1
     8    1    4 1
     9   10   16 1
    10    5   10 1
    11    2   22 1
    12   16   21 1
    13    6   16 1
    14    7   21 2
    15    6   18 1
    16    7   19 1
    17    4   23 1
    18    3    5 1
    19   21   22 1
    20   18   19 1
    21    8    9 1
    22   10   11 1
    23   12   13 1
    24   14   15 1
    25   16   17 1
    26   23   25 1
    27   19   20 2
    28   23   24 1
    29    1   26 1
    30    1   27 1
    31    2   28 1
    32    2   29 1
    33    3   30 1
    34    3   31 1
    35    4   32 1
    36    4   33 1
    37    5   34 1
    38    5   35 1
    39    6   36 1
    40    6   37 1
    41    7   38 1
    42   13   39 1
    43   13   40 1
    44   13   41 1
    45   17   42 1
    46   17   43 1
    47   17   44 1
    48   18   45 1
    49   18   46 1
    50   22   47 1
    51   22   48 1
    52   24   49 1
    53   24   50 1
    54   24   51 1
    55   25   52 1
@<TRIPOS>MOLECULE
3033968
   49    52     0     0     0
SMALL
NO_CHARGES

@<TRIPOS>ATOM
      1 O1          6.6263    1.5550    0.0000 OH        1 <0>         0.0000
      2 O2          1.6500   -1.9996    0.0000 O         1 <0>         0.0000
      3 C1          6.0993    0.5186    0.0000 CT        1 <0>         0.0000
      4 C2          5.3849   -0.7189    0.0000 CT        1 <0>         0.0000
      5 C3          6.0993   -0.3064    0.0000 CT        1 <0>         0.0000
      6 C4          4.6703   -0.3064    0.0000 CT        1 <0>         0.0000
      7 C5          5.3849    0.9311    0.0000 CT        1 <0>         0.0000
      8 C6          4.6703    0.5186    0.0000 CT        1 <0>         0.0000
      9 C7          3.9196   -0.7246    0.0000 CT        1 <0>         0.0000
     10 C8          6.8799    0.7700    0.0000 CT        1 <0>         0.0000
     11 C9          5.3981   -1.5782    0.0000 CT        1 <0>         0.0000
     12 C10         6.0993    1.3436    0.0000 CT        1 <0>         0.0000
     13 C11         6.8799   -0.5579    0.0000 CM        1 <0>         0.0000
     14 C12         3.9130   -1.5839    0.0000 CM        1 <0>         0.0000
     15 C13         4.6572   -2.0136    0.0000 CT        1 <0>         0.0000
     16 C14         7.3614    0.1061    0.0000 CM        1 <0>         0.0000
     17 C15         3.1550   -0.2592    0.0000 CT        1 <0>         0.0000
     18 C16         5.3849    1.7561    0.0000 CT        1 <0>         0.0000
     19 C17         2.3729   -0.6948    0.0000 CT        1 <0>         0.0000
     20 C18         3.1413   -2.0374    0.0000 CM        1 <0>         0.0000
     21 C19         7.5482    1.2538    0.0000 C2        1 <0>         0.0000
     22 C20         2.3661   -1.5899    0.0000 C         1 <0>         0.0000
     23 C21         8.2165    1.7375    0.0000 C2        1 <0>         0.0000
     24 H1          6.6263    1.5550    0.0000 HO        1 <0>         0.0000
     25 H2          5.3849   -0.7189    0.0000 HC        1 <0>         0.0000
     26 H3          6.0993   -0.3064    0.0000 HC        1 <0>         0.0000
     27 H4          4.6703   -0.3064    0.0000 HC        1 <0>         0.0000
     28 H5          5.3849    0.9311    0.0000 HC        1 <0>         0.0000
     29 H6          5.3849    0.9311    0.0000 HC        1 <0>         0.0000
     30 H7          4.6703    0.5186    0.0000 HC        1 <0>         0.0000
     31 H8          4.6703    0.5186    0.0000 HC        1 <0>         0.0000
     32 H9          3.9196   -0.7246    0.0000 HC        1 <0>         0.0000
     33 H10         5.3981   -1.5782    0.0000 HC        1 <0>         0.0000
     34 H11         5.3981   -1.5782    0.0000 HC        1 <0>         0.0000
     35 H12         6.0993    1.3436    0.0000 HC        1 <0>         0.0000
     36 H13         6.0993    1.3436    0.0000 HC        1 <0>         0.0000
     37 H14         6.8799   -0.5579    0.0000 HA        1 <0>         0.0000
     38 H15         4.6572   -2.0136    0.0000 HC        1 <0>         0.0000
     39 H16         4.6572   -2.0136    0.0000 HC        1 <0>         0.0000
     40 H17         7.3614    0.1061    0.0000 HA        1 <0>         0.0000
     41 H18         3.1550   -0.2592    0.0000 HC        1 <0>         0.0000
     42 H19         3.1550   -0.2592    0.0000 HC        1 <0>         0.0000
     43 H20         5.3849    1.7561    0.0000 HC        1 <0>         0.0000
     44 H21         5.3849    1.7561    0.0000 HC        1 <0>         0.0000
     45 H22         5.3849    1.7561    0.0000 HC        1 <0>         0.0000
     46 H23         2.3729   -0.6948    0.0000 HC        1 <0>         0.0000
     47 H24         2.3729   -0.6948    0.0000 HC        1 <0>         0.0000
     48 H25         3.1413   -2.0374    0.0000 HA        1 <0>         0.0000
     49 H26         8.2165    1.7375    0.0000 HC        1 <0>         0.0000
@<TRIPOS>BOND
     1    1   10 1
     2    2   22 2
     3    3    5 1
     4    3    7 1
     5    3   10 1
     6    3   12 1
     7    4    5 1
     8    4    6 1
     9    4   11 1
    10    5   13 1
    11    6    8 1
    12    6    9 1
    13    7    8 1
    14    9   14 1
    15    9   17 1
    16   10   16 1
    17   10   21 1
    18   11   15 1
    19   12   18 1
    20   13   16 2
    21   14   15 1
    22   14   20 2
    23   17   19 1
    24   19   22 1
    25   20   22 1
    26   21   23 3
    27    1   24 1
    28    4   25 1
    29    5   26 1
    30    6   27 1
    31    7   28 1
    32    7   29 1
    33    8   30 1
    34    8   31 1
    35    9   32 1
    36   11   33 1
    37   11   34 1
    38   12   35 1
    39   12   36 1
    40   13   37 1
    41   15   38 1
    42   15   39 1
    43   16   40 1
    44   17   41 1
    45   17   42 1
    46   18   43 1
    47   18   44 1
    48   18   45 1
    49   19   46 1
    50   19   47 1
    51   20   48 1
    52   23   49 1
@<TRIPOS>MOLECULE
2361
   33    36     0     0     0
SMALL
NO_CHARGES

@<TRIPOS>ATOM
      1 O1          4.5391   -0.8708    0.0000 OS        1 <0>         0.0000
      2 O2          4.5487    1.6612    0.0000 O         1 <0>         0.0000
      3 C1          5.2766    0.3952    0.0000 CB        1 <0>         0.0000
      4 C2          5.9911    0.8077    0.0000 CB        1 <0>         0.0000
      5 C3          5.2766   -0.4297    0.0000 CB        1 <0>         0.0000
      6 C4          6.7055    0.3952    0.0000 CB        1 <0>         0.0000
      7 C5          4.5391    0.8364    0.0000 C         1 <0>         0.0000
      8 C6          3.7916   -0.4469    0.0000 CP        1 <0>         0.0000
      9 C7          5.9911   -0.8422    0.0000 CA        1 <0>         0.0000
     10 C8          6.7055   -0.4297    0.0000 CA        1 <0>         0.0000
     11 C9          5.9778    1.6669    0.0000 CA        1 <0>         0.0000
     12 C10         3.7916    0.4124    0.0000 CA        1 <0>         0.0000
     13 C11         7.4562    0.8134    0.0000 CA        1 <0>         0.0000
     14 C12         3.0788   -0.8621    0.0000 CP        1 <0>         0.0000
     15 C13         6.7186    2.1023    0.0000 CA        1 <0>         0.0000
     16 C14         7.4628    1.6727    0.0000 CA        1 <0>         0.0000
     17 C15         2.3628   -0.4524    0.0000 CA        1 <0>         0.0000
     18 C16         3.0820   -1.6871    0.0000 CA        1 <0>         0.0000
     19 C17         1.6499   -0.8676    0.0000 CA        1 <0>         0.0000
     20 C18         2.3691   -2.1023    0.0000 CA        1 <0>         0.0000
     21 C19         1.6531   -1.6926    0.0000 CA        1 <0>         0.0000
     22 H1          5.9911   -0.8422    0.0000 HA        1 <0>         0.0000
     23 H2          6.7055   -0.4297    0.0000 HA        1 <0>         0.0000
     24 H3          5.9778    1.6669    0.0000 HA        1 <0>         0.0000
     25 H4          3.7916    0.4124    0.0000 HA        1 <0>         0.0000
     26 H5          7.4562    0.8134    0.0000 HA        1 <0>         0.0000
     27 H6          6.7186    2.1023    0.0000 HA        1 <0>         0.0000
     28 H7          7.4628    1.6727    0.0000 HA        1 <0>         0.0000
     29 H8          2.3628   -0.4524    0.0000 HA        1 <0>         0.0000
     30 H9          3.0820   -1.6871    0.0000 HA        1 <0>         0.0000
     31 H10         1.6499   -0.8676    0.0000 HA        1 <0>         0.0000
     32 H11         2.3691   -2.1023    0.0000 HA        1 <0>         0.0000
     33 H12         1.6531   -1.6926    0.0000 HA        1 <0>         0.0000
@<TRIPOS>BOND
     1    1    5 1
     2    1    8 1
     3    2    7 2
     4    3    4 ar
     5    3    5 ar
     6    3    7 1
     7    4    6 ar
     8    4   11 ar
     9    5    9 ar
    10    6   10 ar
    11    6   13 ar
    12    7   12 1
    13    8   12 2
    14    8   14 1
    15    9   10 ar
    16   11   15 ar
    17   13   16 ar
    18   14   17 ar
    19   14   18 ar
    20   15   16 ar
    21   17   19 ar
    22   18   20 ar
    23   19   21 ar
    24   20   21 ar
    25    9   22 1
    26   10   23 1
    27   11   24 1
    28   12   25 1
    29   13   26 1
    30   15   27 1
    31   16   28 1
    32   17   29 1
    33   18   30 1
    34   19   31 1
    35   20   32 1
    36   21   33 1
@<TRIPOS>MOLECULE
*****
  102   103     0     0     0
SMALL
NO_CHARGES

@<TRIPOS>ATOM
      1 C1          2.1845    1.1886    0.0000 CT        1 <0>         0.0000
      2 C2          1.4726    0.7769    0.0000 CT        1 <0>         0.0000
      3 C3          0.7638    1.2040    0.0000 CT        1 <0>         0.0000
      4 C4          0.0549    0.7923    0.0000 CT        1 <0>         0.0000
      5 C5         -0.6570    1.2195    0.0000 CT        1 <0>         0.0000
      6 C6         -1.3690    0.8078    0.0000 CM        1 <0>         0.0000
      7 C7         -2.0746    1.2350    0.0000 CM        1 <0>         0.0000
      8 C8         -2.7897    0.8233    0.0000 CM        1 <0>         0.0000
      9 C9         -3.4986    1.2535    0.0000 CM        1 <0>         0.0000
     10 C10        -4.2167    0.8480    0.0000 CT        1 <0>         0.0000
     11 C11        -4.0680    0.0650    0.0000 CT        1 <0>         0.0000
     12 C12        -4.1981   -0.8047    0.0000 CT        1 <0>         0.0000
     13 C13        -3.5108   -1.2041    0.0000 CT        1 <0>         0.0000
     14 C14        -2.8330   -0.7987    0.0000 CM        1 <0>         0.0000
     15 C15        -2.1490   -1.1978    0.0000 CM        1 <0>         0.0000
     16 C16        -1.4711   -0.7924    0.0000 CM        1 <0>         0.0000
     17 C17        -0.7870   -1.1886    0.0000 CM        1 <0>         0.0000
     18 C18        -0.1090   -0.7862    0.0000 C         1 <0>         0.0000
     19 O1          0.1476    0.0836    0.0000 OS        1 <0>         0.0000
     20 O2          0.5748   -1.1825    0.0000 O         1 <0>         0.0000
     21 O3         -0.7870   -1.9502    0.0000 OS        1 <0>         0.0000
     22 C19        -0.0132   -2.4607    0.0000 CT        1 <0>         0.0000
     23 C20        -2.1490   -1.9502    0.0000 CT        1 <0>         0.0000
     24 C21        -3.4676   -1.9502    0.0000 CT        1 <0>         0.0000
     25 O4         -4.9007   -1.2072    0.0000 OH        1 <0>         0.0000
     26 C22        -5.0586    0.0650    0.0000 CT        1 <0>         0.0000
     27 C23        -3.4986    1.9748    0.0000 CT        1 <0>         0.0000
     28 O5         -0.6570    2.0367    0.0000 OS        1 <0>         0.0000
     29 C24         0.1168    2.4607    0.0000 CT        1 <0>         0.0000
     30 C25         0.7638    2.0799    0.0000 CT        1 <0>         0.0000
     31 O6          1.4726    0.0836    0.0000 OH        1 <0>         0.0000
     32 C26         2.1845    1.9748    0.0000 CT        1 <0>         0.0000
     33 C27         3.6294    1.1678    0.0000 CT        1 <0>         0.0000
     34 C28         2.9150    0.7552    0.0000 CT        1 <0>         0.0000
     35 O7          2.9150   -0.0698    0.0000 OS        1 <0>         0.0000
     36 C29         3.6294   -0.4824    0.0000 CT        1 <0>         0.0000
     37 C30         4.3441   -0.0698    0.0000 CT        1 <0>         0.0000
     38 C31         4.3441    0.7552    0.0000 CT        1 <0>         0.0000
     39 C32         3.6294   -1.3075    0.0000 CT        1 <0>         0.0000
     40 C33         4.3441   -1.7200    0.0000 CT        1 <0>         0.0000
     41 C34         2.9150   -1.7200    0.0000 CT        1 <0>         0.0000
     42 C35         5.0586   -0.4824    0.0000 CT        1 <0>         0.0000
     43 O8          5.0586    1.1678    0.0000 OH        1 <0>         0.0000
     44 O9          2.9150    1.5803    0.0000 OH        1 <0>         0.0000
     45 H1          2.1845    1.1886    0.0000 HC        1 <0>         0.0000
     46 H2          1.4726    0.7769    0.0000 H1        1 <0>         0.0000
     47 H3          0.7638    1.2040    0.0000 HC        1 <0>         0.0000
     48 H4          0.0549    0.7923    0.0000 H1        1 <0>         0.0000
     49 H5         -0.6570    1.2195    0.0000 H1        1 <0>         0.0000
     50 H6         -1.3690    0.8078    0.0000 HA        1 <0>         0.0000
     51 H7         -2.0746    1.2350    0.0000 HA        1 <0>         0.0000
     52 H8         -2.7897    0.8233    0.0000 HA        1 <0>         0.0000
     53 H9         -4.2167    0.8480    0.0000 HC        1 <0>         0.0000
     54 H10        -4.2167    0.8480    0.0000 HC        1 <0>         0.0000
     55 H11        -4.0680    0.0650    0.0000 HC        1 <0>         0.0000
     56 H12        -4.1981   -0.8047    0.0000 H1        1 <0>         0.0000
     57 H13        -3.5108   -1.2041    0.0000 HC        1 <0>         0.0000
     58 H14        -2.8330   -0.7987    0.0000 HA        1 <0>         0.0000
     59 H15        -1.4711   -0.7924    0.0000 HA        1 <0>         0.0000
     60 H16        -0.0132   -2.4607    0.0000 H1        1 <0>         0.0000
     61 H17        -0.0132   -2.4607    0.0000 H1        1 <0>         0.0000
     62 H18        -0.0132   -2.4607    0.0000 H1        1 <0>         0.0000
     63 H19        -2.1490   -1.9502    0.0000 HC        1 <0>         0.0000
     64 H20        -2.1490   -1.9502    0.0000 HC        1 <0>         0.0000
     65 H21        -2.1490   -1.9502    0.0000 HC        1 <0>         0.0000
     66 H22        -3.4676   -1.9502    0.0000 HC        1 <0>         0.0000
     67 H23        -3.4676   -1.9502    0.0000 HC        1 <0>         0.0000
     68 H24        -3.4676   -1.9502    0.0000 HC        1 <0>         0.0000
     69 H25        -4.9007   -1.2072    0.0000 HO        1 <0>         0.0000
     70 H26        -5.0586    0.0650    0.0000 HC        1 <0>         0.0000
     71 H27        -5.0586    0.0650    0.0000 HC        1 <0>         0.0000
     72 H28        -5.0586    0.0650    0.0000 HC        1 <0>         0.0000
     73 H29        -3.4986    1.9748    0.0000 HC        1 <0>         0.0000
     74 H30        -3.4986    1.9748    0.0000 HC        1 <0>         0.0000
     75 H31        -3.4986    1.9748    0.0000 HC        1 <0>         0.0000
     76 H32         0.1168    2.4607    0.0000 H1        1 <0>         0.0000
     77 H33         0.1168    2.4607    0.0000 H1        1 <0>         0.0000
     78 H34         0.1168    2.4607    0.0000 H1        1 <0>         0.0000
     79 H35         0.7638    2.0799    0.0000 HC        1 <0>         0.0000
     80 H36         0.7638    2.0799    0.0000 HC        1 <0>         0.0000
     81 H37         0.7638    2.0799    0.0000 HC        1 <0>         0.0000
     82 H38         1.4726    0.0836    0.0000 HO        1 <0>         0.0000
     83 H39         2.1845    1.9748    0.0000 HC        1 <0>         0.0000
     84 H40         2.1845    1.9748    0.0000 HC        1 <0>         0.0000
     85 H41         2.1845    1.9748    0.0000 HC        1 <0>         0.0000
     86 H42         3.6294    1.1678    0.0000 HC        1 <0>         0.0000
     87 H43         3.6294    1.1678    0.0000 HC        1 <0>         0.0000
     88 H44         3.6294   -0.4824    0.0000 H1        1 <0>         0.0000
     89 H45         4.3441   -0.0698    0.0000 HC        1 <0>         0.0000
     90 H46         4.3441    0.7552    0.0000 H1        1 <0>         0.0000
     91 H47         3.6294   -1.3075    0.0000 HC        1 <0>         0.0000
     92 H48         4.3441   -1.7200    0.0000 HC        1 <0>         0.0000
     93 H49         4.3441   -1.7200    0.0000 HC        1 <0>         0.0000
     94 H50         4.3441   -1.7200    0.0000 HC        1 <0>         0.0000
     95 H51         2.9150   -1.7200    0.0000 HC        1 <0>         0.0000
     96 H52         2.9150   -1.7200    0.0000 HC        1 <0>         0.0000
     97 H53         2.9150   -1.7200    0.0000 HC        1 <0>         0.0000
     98 H54         5.0586   -0.4824    0.0000 HC        1 <0>         0.0000
     99 H55         5.0586   -0.4824    0.0000 HC        1 <0>         0.0000
    100 H56         5.0586   -0.4824    0.0000 HC        1 <0>         0.0000
    101 H57         5.0586    1.1678    0.0000 HO        1 <0>         0.0000
    102 H58         2.9150    1.5803    0.0000 HO        1 <0>         0.0000
@<TRIPOS>BOND
     1    1   34 1
     2    1    2 1
     3    2    3 1
     4    3    4 1
     5    4    5 1
     6    5    6 1
     7    6    7 2
     8    7    8 1
     9    8    9 2
    10    9   10 1
    11   10   11 1
    12   11   12 1
    13   12   13 1
    14   13   14 1
    15   14   15 2
    16   15   16 1
    17   16   17 2
    18   17   18 1
    19   18   19 1
    20    4   19 1
    21   18   20 2
    22   17   21 1
    23   21   22 1
    24   15   23 1
    25   13   24 1
    26   12   25 1
    27   11   26 1
    28    9   27 1
    29    5   28 1
    30   28   29 1
    31    3   30 1
    32    2   31 1
    33    1   32 1
    34   33   34 1
    35   34   35 1
    36   35   36 1
    37   36   37 1
    38   37   38 1
    39   33   38 1
    40   36   39 1
    41   39   40 1
    42   39   41 1
    43   37   42 1
    44   38   43 1
    45   34   44 1
    46    1   45 1
    47    2   46 1
    48    3   47 1
    49    4   48 1
    50    5   49 1
    51    6   50 1
    52    7   51 1
    53    8   52 1
    54   10   53 1
    55   10   54 1
    56   11   55 1
    57   12   56 1
    58   13   57 1
    59   14   58 1
    60   16   59 1
    61   22   60 1
    62   22   61 1
    63   22   62 1
    64   23   63 1
    65   23   64 1
    66   23   65 1
    67   24   66 1
    68   24   67 1
    69   24   68 1
    70   25   69 1
    71   26   70 1
    72   26   71 1
    73   26   72 1
    74   27   73 1
    75   27   74 1
    76   27   75 1
    77   29   76 1
    78   29   77 1
    79   29   78 1
    80   30   79 1
    81   30   80 1
    82   30   81 1
    83   31   82 1
    84   32   83 1
    85   32   84 1
    86   32   85 1
    87   33   86 1
    88   33   87 1
    89   36   88 1
    90   37   89 1
    91   38   90 1
    92   39   91 1
    93   40   92 1
    94   40   93 1
    95   40   94 1
    96   41   95 1
    97   41   96 1
    98   41   97 1
    99   42   98 1
   100   42   99 1
   101   42  100 1
   102   43  101 1
   103   44  102 1
@<TRIPOS>MOLECULE
*****
   53    58     0     0     0
SMALL
NO_CHARGES

@<TRIPOS>ATOM
      1 C1          6.0247   -9.1250    0.0000 C         1 <0>         0.0000
      2 O1          6.0247   -9.9500    0.0000 OS        1 <0>         0.0000
      3 C2          6.8093  -10.2049    0.0000 CT        1 <0>         0.0000
      4 C3          7.2943   -9.5375    0.0000 CT        1 <0>         0.0000
      5 C4          6.8093   -8.8701    0.0000 CT        1 <0>         0.0000
      6 C5          8.0789  -10.6175    0.0000 CT        1 <0>         0.0000
      7 C6          8.0789   -9.7924    0.0000 CT        1 <0>         0.0000
      8 C7          8.8635  -10.8723    0.0000 CT        1 <0>         0.0000
      9 C8          9.3484  -10.2049    0.0000 CT        1 <0>         0.0000
     10 O2          8.8635   -9.5375    0.0000 OS        1 <0>         0.0000
     11 O3         10.1331  -10.4598    0.0000 OS        1 <0>         0.0000
     12 C9         10.1331  -11.2848    0.0000 C         1 <0>         0.0000
     13 C10         9.3484  -11.5398    0.0000 CT        1 <0>         0.0000
     14 O4          5.3572   -8.6401    0.0000 O         1 <0>         0.0000
     15 C11         7.2943  -10.8723    0.0000 CT        1 <0>         0.0000
     16 C12         7.5939  -11.2848    0.0000 CT        1 <0>         0.0000
     17 C13         8.8635  -11.6973    0.0000 CT        1 <0>         0.0000
     18 C14         8.0789  -11.9523    0.0000 CT        1 <0>         0.0000
     19 O5         10.7305  -11.6999    0.0000 O         1 <0>         0.0000
     20 O6          7.2758   -8.5344    0.0000 OH        1 <0>         0.0000
     21 C15         6.7426   -8.0714    0.0000 CT        1 <0>         0.0000
     22 C16         7.9284   -9.0750    0.0000 C         1 <0>         0.0000
     23 O7          7.4250  -10.0678    0.0000 OS        1 <0>         0.0000
     24 O8          7.9284   -8.4318    0.0000 O         1 <0>         0.0000
     25 O9          9.7462  -12.2212    0.0000 OH        1 <0>         0.0000
     26 C17         8.9212  -12.3890    0.0000 CT        1 <0>         0.0000
     27 C18         8.4178  -13.0462    0.0000 CT        1 <0>         0.0000
     28 C19         9.0750  -13.2140    0.0000 CT        1 <0>         0.0000
     29 C20         9.5784  -12.8784    0.0000 CT        1 <0>         0.0000
     30 H1          6.8093  -10.2049    0.0000 H1        1 <0>         0.0000
     31 H2          6.8093   -8.8701    0.0000 HC        1 <0>         0.0000
     32 H3          9.3484  -10.2049    0.0000 H2        1 <0>         0.0000
     33 H4          9.3484  -11.5398    0.0000 H1        1 <0>         0.0000
     34 H5          7.2943  -10.8723    0.0000 HC        1 <0>         0.0000
     35 H6          7.2943  -10.8723    0.0000 HC        1 <0>         0.0000
     36 H7          7.5939  -11.2848    0.0000 H1        1 <0>         0.0000
     37 H8          8.8635  -11.6973    0.0000 HC        1 <0>         0.0000
     38 H9          8.0789  -11.9523    0.0000 HC        1 <0>         0.0000
     39 H10         8.0789  -11.9523    0.0000 HC        1 <0>         0.0000
     40 H11         7.2758   -8.5344    0.0000 HO        1 <0>         0.0000
     41 H12         6.7426   -8.0714    0.0000 HC        1 <0>         0.0000
     42 H13         6.7426   -8.0714    0.0000 HC        1 <0>         0.0000
     43 H14         6.7426   -8.0714    0.0000 HC        1 <0>         0.0000
     44 H15         9.7462  -12.2212    0.0000 HO        1 <0>         0.0000
     45 H16         8.4178  -13.0462    0.0000 HC        1 <0>         0.0000
     46 H17         8.4178  -13.0462    0.0000 HC        1 <0>         0.0000
     47 H18         8.4178  -13.0462    0.0000 HC        1 <0>         0.0000
     48 H19         9.0750  -13.2140    0.0000 HC        1 <0>         0.0000
     49 H20         9.0750  -13.2140    0.0000 HC        1 <0>         0.0000
     50 H21         9.0750  -13.2140    0.0000 HC        1 <0>         0.0000
     51 H22         9.5784  -12.8784    0.0000 HC        1 <0>         0.0000
     52 H23         9.5784  -12.8784    0.0000 HC        1 <0>         0.0000
     53 H24         9.5784  -12.8784    0.0000 HC        1 <0>         0.0000
@<TRIPOS>BOND
     1    1    2 1
     2    2    3 1
     3    3    4 1
     4    4    5 1
     5    1    5 1
     6    6    7 1
     7    4    7 1
     8    6    8 1
     9    9   10 1
    10    7   10 1
    11    8    9 1
    12    9   11 1
    13   11   12 1
    14   12   13 1
    15    8   13 1
    16    1   14 2
    17    3   15 1
    18    6   15 1
    19    6   16 1
    20    8   17 1
    21   17   18 1
    22   16   18 1
    23   12   19 2
    24    4   20 1
    25    5   21 1
    26    7   22 1
    27   22   23 1
    28   16   23 1
    29   22   24 2
    30   13   25 1
    31   17   26 1
    32   26   27 1
    33   26   28 1
    34   26   29 1
    35    3   30 1
    36    5   31 1
    37    9   32 1
    38   13   33 1
    39   15   34 1
    40   15   35 1
    41   16   36 1
    42   17   37 1
    43   18   38 1
    44   18   39 1
    45   20   40 1
    46   21   41 1
    47   21   42 1
    48   21   43 1
    49   25   44 1
    50   27   45 1
    51   27   46 1
    52   27   47 1
    53   28   48 1
    54   28   49 1
    55   28   50 1
    56   29   51 1
    57   29   52 1
    58   29   53 1
@<TRIPOS>MOLECULE
*****
   54    59     0     0     0
SMALL
NO_CHARGES

@<TRIPOS>ATOM
      1 C1          6.0247   -9.1250    0.0000 C         1 <0>         0.0000
      2 O1          6.0247   -9.9501    0.0000 OS        1 <0>         0.0000
      3 C2          6.8094  -10.2050    0.0000 CT        1 <0>         0.0000
      4 C3          7.2943   -9.5376    0.0000 CT        1 <0>         0.0000
      5 C4          6.8094   -8.8701    0.0000 CT        1 <0>         0.0000
      6 C5          8.0789  -10.6176    0.0000 CT        1 <0>         0.0000
      7 C6          8.0789   -9.7925    0.0000 CT        1 <0>         0.0000
      8 C7          8.8636  -10.8724    0.0000 CT        1 <0>         0.0000
      9 C8          9.3485  -10.2050    0.0000 CT        1 <0>         0.0000
     10 O2          8.8636   -9.5376    0.0000 OS        1 <0>         0.0000
     11 O3         10.1332  -10.4599    0.0000 OS        1 <0>         0.0000
     12 C9         10.1332  -11.2849    0.0000 C         1 <0>         0.0000
     13 C10         9.3485  -11.5399    0.0000 CT        1 <0>         0.0000
     14 O4          5.3573   -8.6401    0.0000 O         1 <0>         0.0000
     15 C11         7.2943  -10.8724    0.0000 CT        1 <0>         0.0000
     16 C12         7.5940  -11.2849    0.0000 CT        1 <0>         0.0000
     17 C13         8.8636  -11.6974    0.0000 CT        1 <0>         0.0000
     18 C14         8.0789  -11.9524    0.0000 CT        1 <0>         0.0000
     19 O5         10.7306  -11.7000    0.0000 O         1 <0>         0.0000
     20 O6          7.2758   -8.5345    0.0000 OH        1 <0>         0.0000
     21 O7          6.8996  -11.5872    0.0000 OH        1 <0>         0.0000
     22 C15         6.7427   -8.0715    0.0000 CT        1 <0>         0.0000
     23 C16         7.9285   -9.0751    0.0000 C         1 <0>         0.0000
     24 O8          7.4251  -10.0679    0.0000 OS        1 <0>         0.0000
     25 O9          7.9285   -8.4319    0.0000 O         1 <0>         0.0000
     26 O10         9.7463  -12.2213    0.0000 OH        1 <0>         0.0000
     27 C17         8.9213  -12.3891    0.0000 CT        1 <0>         0.0000
     28 C18         8.2501  -12.8785    0.0000 CT        1 <0>         0.0000
     29 C19         8.9213  -13.2141    0.0000 CT        1 <0>         0.0000
     30 C20         9.5785  -12.8785    0.0000 CT        1 <0>         0.0000
     31 H1          6.8094  -10.2050    0.0000 H1        1 <0>         0.0000
     32 H2          6.8094   -8.8701    0.0000 HC        1 <0>         0.0000
     33 H3          9.3485  -10.2050    0.0000 H2        1 <0>         0.0000
     34 H4          9.3485  -11.5399    0.0000 H1        1 <0>         0.0000
     35 H5          7.2943  -10.8724    0.0000 H1        1 <0>         0.0000
     36 H6          7.5940  -11.2849    0.0000 H1        1 <0>         0.0000
     37 H7          8.8636  -11.6974    0.0000 HC        1 <0>         0.0000
     38 H8          8.0789  -11.9524    0.0000 HC        1 <0>         0.0000
     39 H9          8.0789  -11.9524    0.0000 HC        1 <0>         0.0000
     40 H10         7.2758   -8.5345    0.0000 HO        1 <0>         0.0000
     41 H11         6.8996  -11.5872    0.0000 HO        1 <0>         0.0000
     42 H12         6.7427   -8.0715    0.0000 HC        1 <0>         0.0000
     43 H13         6.7427   -8.0715    0.0000 HC        1 <0>         0.0000
     44 H14         6.7427   -8.0715    0.0000 HC        1 <0>         0.0000
     45 H15         9.7463  -12.2213    0.0000 HO        1 <0>         0.0000
     46 H16         8.2501  -12.8785    0.0000 HC        1 <0>         0.0000
     47 H17         8.2501  -12.8785    0.0000 HC        1 <0>         0.0000
     48 H18         8.2501  -12.8785    0.0000 HC        1 <0>         0.0000
     49 H19         8.9213  -13.2141    0.0000 HC        1 <0>         0.0000
     50 H20         8.9213  -13.2141    0.0000 HC        1 <0>         0.0000
     51 H21         8.9213  -13.2141    0.0000 HC        1 <0>         0.0000
     52 H22         9.5785  -12.8785    0.0000 HC        1 <0>         0.0000
     53 H23         9.5785  -12.8785    0.0000 HC        1 <0>         0.0000
     54 H24         9.5785  -12.8785    0.0000 HC        1 <0>         0.0000
@<TRIPOS>BOND
     1    1    2 1
     2    2    3 1
     3    3    4 1
     4    4    5 1
     5    1    5 1
     6    6    7 1
     7    4    7 1
     8    6    8 1
     9    9   10 1
    10    7   10 1
    11    8    9 1
    12    9   11 1
    13   11   12 1
    14   12   13 1
    15    8   13 1
    16    1   14 2
    17    3   15 1
    18    6   15 1
    19    6   16 1
    20    8   17 1
    21   17   18 1
    22   16   18 1
    23   12   19 2
    24    4   20 1
    25   15   21 1
    26    5   22 1
    27    7   23 1
    28   23   24 1
    29   16   24 1
    30   23   25 2
    31   13   26 1
    32   17   27 1
    33   27   28 1
    34   27   29 1
    35   27   30 1
    36    3   31 1
    37    5   32 1
    38    9   33 1
    39   13   34 1
    40   15   35 1
    41   16   36 1
    42   17   37 1
    43   18   38 1
    44   18   39 1
    45   20   40 1
    46   21   41 1
    47   22   42 1
    48   22   43 1
    49   22   44 1
    50   26   45 1
    51   28   46 1
    52   28   47 1
    53   28   48 1
    54   29   49 1
    55   29   50 1
    56   29   51 1
    57   30   52 1
    58   30   53 1
    59   30   54 1
@<TRIPOS>MOLECULE
*****
   55    60     0     0     0
SMALL
NO_CHARGES

@<TRIPOS>ATOM
      1 C1          6.0248   -9.1251    0.0000 C         1 <0>         0.0000
      2 O1          6.0248   -9.9502    0.0000 OS        1 <0>         0.0000
      3 C2          6.8094  -10.2051    0.0000 CT        1 <0>         0.0000
      4 C3          7.2944   -9.5377    0.0000 CT        1 <0>         0.0000
      5 C4          6.8094   -8.8702    0.0000 CT        1 <0>         0.0000
      6 C5          8.0790  -10.6176    0.0000 CT        1 <0>         0.0000
      7 C6          8.0790   -9.7926    0.0000 CT        1 <0>         0.0000
      8 C7          8.8637  -10.8725    0.0000 CT        1 <0>         0.0000
      9 C8          9.3486  -10.2051    0.0000 CT        1 <0>         0.0000
     10 O2          8.8637   -9.5377    0.0000 OS        1 <0>         0.0000
     11 O3         10.1332  -10.4600    0.0000 OS        1 <0>         0.0000
     12 C9         10.1332  -11.2850    0.0000 C         1 <0>         0.0000
     13 C10         9.3486  -11.5400    0.0000 CT        1 <0>         0.0000
     14 O4          5.3573   -8.6402    0.0000 O         1 <0>         0.0000
     15 C11         7.2944  -10.8725    0.0000 CT        1 <0>         0.0000
     16 C12         7.5941  -11.2850    0.0000 CT        1 <0>         0.0000
     17 C13         8.8637  -11.6975    0.0000 CT        1 <0>         0.0000
     18 C14         8.0790  -11.9525    0.0000 CT        1 <0>         0.0000
     19 O5         10.7307  -11.7001    0.0000 O         1 <0>         0.0000
     20 O6          7.2759   -8.5346    0.0000 OH        1 <0>         0.0000
     21 O7          6.8996  -11.5873    0.0000 OH        1 <0>         0.0000
     22 C15         6.7427   -8.0716    0.0000 CT        1 <0>         0.0000
     23 C16         7.9285   -9.0752    0.0000 C         1 <0>         0.0000
     24 O8          7.4251  -10.0680    0.0000 OS        1 <0>         0.0000
     25 O9          7.9285   -8.4320    0.0000 O         1 <0>         0.0000
     26 O10         9.7464  -12.2214    0.0000 OH        1 <0>         0.0000
     27 C17         8.9213  -12.3892    0.0000 CT        1 <0>         0.0000
     28 C18         8.4180  -13.0464    0.0000 CT        1 <0>         0.0000
     29 C19         9.0752  -13.2142    0.0000 CT        1 <0>         0.0000
     30 C20         9.5786  -12.8786    0.0000 CT        1 <0>         0.0000
     31 O11         7.5929  -12.5571    0.0000 OH        1 <0>         0.0000
     32 H1          6.8094  -10.2051    0.0000 H1        1 <0>         0.0000
     33 H2          6.8094   -8.8702    0.0000 HC        1 <0>         0.0000
     34 H3          9.3486  -10.2051    0.0000 H2        1 <0>         0.0000
     35 H4          9.3486  -11.5400    0.0000 H1        1 <0>         0.0000
     36 H5          7.2944  -10.8725    0.0000 H1        1 <0>         0.0000
     37 H6          7.5941  -11.2850    0.0000 H1        1 <0>         0.0000
     38 H7          8.8637  -11.6975    0.0000 HC        1 <0>         0.0000
     39 H8          8.0790  -11.9525    0.0000 H1        1 <0>         0.0000
     40 H9          7.2759   -8.5346    0.0000 HO        1 <0>         0.0000
     41 H10         6.8996  -11.5873    0.0000 HO        1 <0>         0.0000
     42 H11         6.7427   -8.0716    0.0000 HC        1 <0>         0.0000
     43 H12         6.7427   -8.0716    0.0000 HC        1 <0>         0.0000
     44 H13         6.7427   -8.0716    0.0000 HC        1 <0>         0.0000
     45 H14         9.7464  -12.2214    0.0000 HO        1 <0>         0.0000
     46 H15         8.4180  -13.0464    0.0000 HC        1 <0>         0.0000
     47 H16         8.4180  -13.0464    0.0000 HC        1 <0>         0.0000
     48 H17         8.4180  -13.0464    0.0000 HC        1 <0>         0.0000
     49 H18         9.0752  -13.2142    0.0000 HC        1 <0>         0.0000
     50 H19         9.0752  -13.2142    0.0000 HC        1 <0>         0.0000
     51 H20         9.0752  -13.2142    0.0000 HC        1 <0>         0.0000
     52 H21         9.5786  -12.8786    0.0000 HC        1 <0>         0.0000
     53 H22         9.5786  -12.8786    0.0000 HC        1 <0>         0.0000
     54 H23         9.5786  -12.8786    0.0000 HC        1 <0>         0.0000
     55 H24         7.5929  -12.5571    0.0000 HO        1 <0>         0.0000
@<TRIPOS>BOND
     1    1    2 1
     2    2    3 1
     3    3    4 1
     4    4    5 1
     5    1    5 1
     6    6    7 1
     7    4    7 1
     8    6    8 1
     9    9   10 1
    10    7   10 1
    11    8    9 1
    12    9   11 1
    13   11   12 1
    14   12   13 1
    15    8   13 1
    16    1   14 2
    17    3   15 1
    18    6   15 1
    19    6   16 1
    20    8   17 1
    21   17   18 1
    22   16   18 1
    23   12   19 2
    24    4   20 1
    25   15   21 1
    26    5   22 1
    27    7   23 1
    28   23   24 1
    29   16   24 1
    30   23   25 2
    31   13   26 1
    32   17   27 1
    33   27   28 1
    34   27   29 1
    35   27   30 1
    36   18   31 1
    37    3   32 1
    38    5   33 1
    39    9   34 1
    40   13   35 1
    41   15   36 1
    42   16   37 1
    43   17   38 1
    44   18   39 1
    45   20   40 1
    46   21   41 1
    47   22   42 1
    48   22   43 1
    49   22   44 1
    50   26   45 1
    51   28   46 1
    52   28   47 1
    53   28   48 1
    54   29   49 1
    55   29   50 1
    56   29   51 1
    57   30   52 1
    58   30   53 1
    59   30   54 1
    60   31   55 1
@<TRIPOS>MOLECULE
*****
   54    59     0     0     0
SMALL
NO_CHARGES

@<TRIPOS>ATOM
      1 C1          7.1015   -8.5657    0.0000 C         1 <0>         0.0000
      2 O1          7.1015   -9.3908    0.0000 OS        1 <0>         0.0000
      3 C2          7.8861   -9.6457    0.0000 CT        1 <0>         0.0000
      4 C3          8.3710   -8.9783    0.0000 CT        1 <0>         0.0000
      5 C4          7.8861   -8.3108    0.0000 CT        1 <0>         0.0000
      6 C5          9.1557  -10.0582    0.0000 CT        1 <0>         0.0000
      7 C6          9.1557   -9.2332    0.0000 CT        1 <0>         0.0000
      8 C7          9.9403  -10.3131    0.0000 CT        1 <0>         0.0000
      9 C8         10.4253   -9.6457    0.0000 CT        1 <0>         0.0000
     10 O2          9.9403   -8.9783    0.0000 OS        1 <0>         0.0000
     11 O3         11.2099   -9.9006    0.0000 OS        1 <0>         0.0000
     12 C9         11.2099  -10.7256    0.0000 C         1 <0>         0.0000
     13 C10        10.4253  -10.9806    0.0000 CT        1 <0>         0.0000
     14 O4          6.4340   -8.0808    0.0000 O         1 <0>         0.0000
     15 C11         8.3710  -10.3131    0.0000 CT        1 <0>         0.0000
     16 C12         8.6707  -10.7256    0.0000 CT        1 <0>         0.0000
     17 C13         9.9403  -11.1381    0.0000 CT        1 <0>         0.0000
     18 C14         9.1557  -11.3931    0.0000 CT        1 <0>         0.0000
     19 O5         11.8074  -11.1407    0.0000 O         1 <0>         0.0000
     20 O6          8.3526   -7.9752    0.0000 OH        1 <0>         0.0000
     21 C15         7.8194   -7.5122    0.0000 CT        1 <0>         0.0000
     22 C16         9.0052   -8.5158    0.0000 C         1 <0>         0.0000
     23 O7          8.5018   -9.5086    0.0000 OS        1 <0>         0.0000
     24 O8          9.0052   -7.8726    0.0000 O         1 <0>         0.0000
     25 O9         10.8230  -11.6620    0.0000 OH        1 <0>         0.0000
     26 C17         9.9980  -11.8298    0.0000 CT        1 <0>         0.0000
     27 C18         9.4946  -12.4870    0.0000 CT        1 <0>         0.0000
     28 C19        10.1518  -12.6548    0.0000 CT        1 <0>         0.0000
     29 C20        10.6552  -12.3192    0.0000 CT        1 <0>         0.0000
     30 O10         8.6696  -11.9976    0.0000 OH        1 <0>         0.0000
     31 H1          7.8861   -9.6457    0.0000 H1        1 <0>         0.0000
     32 H2          7.8861   -8.3108    0.0000 HC        1 <0>         0.0000
     33 H3         10.4253   -9.6457    0.0000 H2        1 <0>         0.0000
     34 H4         10.4253  -10.9806    0.0000 H1        1 <0>         0.0000
     35 H5          8.3710  -10.3131    0.0000 HC        1 <0>         0.0000
     36 H6          8.3710  -10.3131    0.0000 HC        1 <0>         0.0000
     37 H7          8.6707  -10.7256    0.0000 H1        1 <0>         0.0000
     38 H8          9.9403  -11.1381    0.0000 HC        1 <0>         0.0000
     39 H9          9.1557  -11.3931    0.0000 H1        1 <0>         0.0000
     40 H10         8.3526   -7.9752    0.0000 HO        1 <0>         0.0000
     41 H11         7.8194   -7.5122    0.0000 HC        1 <0>         0.0000
     42 H12         7.8194   -7.5122    0.0000 HC        1 <0>         0.0000
     43 H13         7.8194   -7.5122    0.0000 HC        1 <0>         0.0000
     44 H14        10.8230  -11.6620    0.0000 HO        1 <0>         0.0000
     45 H15         9.4946  -12.4870    0.0000 HC        1 <0>         0.0000
     46 H16         9.4946  -12.4870    0.0000 HC        1 <0>         0.0000
     47 H17         9.4946  -12.4870    0.0000 HC        1 <0>         0.0000
     48 H18        10.1518  -12.6548    0.0000 HC        1 <0>         0.0000
     49 H19        10.1518  -12.6548    0.0000 HC        1 <0>         0.0000
     50 H20        10.1518  -12.6548    0.0000 HC        1 <0>         0.0000
     51 H21        10.6552  -12.3192    0.0000 HC        1 <0>         0.0000
     52 H22        10.6552  -12.3192    0.0000 HC        1 <0>         0.0000
     53 H23        10.6552  -12.3192    0.0000 HC        1 <0>         0.0000
     54 H24         8.6696  -11.9976    0.0000 HO        1 <0>         0.0000
@<TRIPOS>BOND
     1    1    2 1
     2    2    3 1
     3    3    4 1
     4    4    5 1
     5    1    5 1
     6    6    7 1
     7    4    7 1
     8    6    8 1
     9    9   10 1
    10    7   10 1
    11    8    9 1
    12    9   11 1
    13   11   12 1
    14   12   13 1
    15    8   13 1
    16    1   14 2
    17    3   15 1
    18    6   15 1
    19    6   16 1
    20    8   17 1
    21   17   18 1
    22   16   18 1
    23   12   19 2
    24    4   20 1
    25    5   21 1
    26    7   22 1
    27   22   23 1
    28   16   23 1
    29   22   24 2
    30   13   25 1
    31   17   26 1
    32   26   27 1
    33   26   28 1
    34   26   29 1
    35   18   30 1
    36    3   31 1
    37    5   32 1
    38    9   33 1
    39   13   34 1
    40   15   35 1
    41   15   36 1
    42   16   37 1
    43   17   38 1
    44   18   39 1
    45   20   40 1
    46   21   41 1
    47   21   42 1
    48   21   43 1
    49   25   44 1
    50   27   45 1
    51   27   46 1
    52   27   47 1
    53   28   48 1
    54   28   49 1
    55   28   50 1
    56   29   51 1
    57   29   52 1
    58   29   53 1
    59   30   54 1
@<TRIPOS>MOLECULE
*****
   54    59     0     0     0
SMALL
NO_CHARGES

@<TRIPOS>ATOM
      1 C1          7.1015   -8.5658    0.0000 C         1 <0>         0.0000
      2 O1          7.1015   -9.3909    0.0000 OS        1 <0>         0.0000
      3 C2          7.8862   -9.6458    0.0000 CT        1 <0>         0.0000
      4 C3          8.3711   -8.9784    0.0000 CT        1 <0>         0.0000
      5 C4          7.8862   -8.3109    0.0000 CT        1 <0>         0.0000
      6 C5          9.1558  -10.0583    0.0000 CT        1 <0>         0.0000
      7 C6          9.1558   -9.2333    0.0000 CT        1 <0>         0.0000
      8 C7          9.9404  -10.3132    0.0000 CT        1 <0>         0.0000
      9 C8         10.4254   -9.6458    0.0000 CT        1 <0>         0.0000
     10 O2          9.9404   -8.9784    0.0000 OS        1 <0>         0.0000
     11 O3         11.2100   -9.9007    0.0000 OS        1 <0>         0.0000
     12 C9         11.2100  -10.7257    0.0000 C         1 <0>         0.0000
     13 C10        10.4254  -10.9807    0.0000 CT        1 <0>         0.0000
     14 O4          6.4341   -8.0809    0.0000 O         1 <0>         0.0000
     15 C11         8.3711  -10.3132    0.0000 CT        1 <0>         0.0000
     16 C12         8.6708  -10.7257    0.0000 CT        1 <0>         0.0000
     17 C13         9.9404  -11.1382    0.0000 CT        1 <0>         0.0000
     18 C14         9.1558  -11.3932    0.0000 CT        1 <0>         0.0000
     19 O5         11.8075  -11.1408    0.0000 O         1 <0>         0.0000
     20 O6          7.9764  -11.0280    0.0000 OH        1 <0>         0.0000
     21 C15         7.8195   -7.5123    0.0000 CT        1 <0>         0.0000
     22 C16         9.0053   -8.5159    0.0000 C         1 <0>         0.0000
     23 O7          8.5019   -9.5087    0.0000 OS        1 <0>         0.0000
     24 O8          9.0053   -7.8727    0.0000 O         1 <0>         0.0000
     25 O9         10.8231  -11.6621    0.0000 OH        1 <0>         0.0000
     26 C17         9.9981  -11.8299    0.0000 CT        1 <0>         0.0000
     27 C18         9.4947  -12.4871    0.0000 CT        1 <0>         0.0000
     28 C19        10.1519  -12.6549    0.0000 CT        1 <0>         0.0000
     29 C20        10.6553  -12.3193    0.0000 CT        1 <0>         0.0000
     30 O10         8.6697  -11.9978    0.0000 OH        1 <0>         0.0000
     31 H1          7.8862   -9.6458    0.0000 H1        1 <0>         0.0000
     32 H2          8.3711   -8.9784    0.0000 HC        1 <0>         0.0000
     33 H3          7.8862   -8.3109    0.0000 HC        1 <0>         0.0000
     34 H4         10.4254   -9.6458    0.0000 H2        1 <0>         0.0000
     35 H5         10.4254  -10.9807    0.0000 H1        1 <0>         0.0000
     36 H6          8.3711  -10.3132    0.0000 H1        1 <0>         0.0000
     37 H7          8.6708  -10.7257    0.0000 H1        1 <0>         0.0000
     38 H8          9.9404  -11.1382    0.0000 HC        1 <0>         0.0000
     39 H9          9.1558  -11.3932    0.0000 H1        1 <0>         0.0000
     40 H10         7.9764  -11.0280    0.0000 HO        1 <0>         0.0000
     41 H11         7.8195   -7.5123    0.0000 HC        1 <0>         0.0000
     42 H12         7.8195   -7.5123    0.0000 HC        1 <0>         0.0000
     43 H13         7.8195   -7.5123    0.0000 HC        1 <0>         0.0000
     44 H14        10.8231  -11.6621    0.0000 HO        1 <0>         0.0000
     45 H15         9.4947  -12.4871    0.0000 HC        1 <0>         0.0000
     46 H16         9.4947  -12.4871    0.0000 HC        1 <0>         0.0000
     47 H17         9.4947  -12.4871    0.0000 HC        1 <0>         0.0000
     48 H18        10.1519  -12.6549    0.0000 HC        1 <0>         0.0000
     49 H19        10.1519  -12.6549    0.0000 HC        1 <0>         0.0000
     50 H20        10.1519  -12.6549    0.0000 HC        1 <0>         0.0000
     51 H21        10.6553  -12.3193    0.0000 HC        1 <0>         0.0000
     52 H22        10.6553  -12.3193    0.0000 HC        1 <0>         0.0000
     53 H23        10.6553  -12.3193    0.0000 HC        1 <0>         0.0000
     54 H24         8.6697  -11.9978    0.0000 HO        1 <0>         0.0000
@<TRIPOS>BOND
     1    1    2 1
     2    2    3 1
     3    3    4 1
     4    4    5 1
     5    1    5 1
     6    6    7 1
     7    4    7 1
     8    6    8 1
     9    9   10 1
    10    7   10 1
    11    8    9 1
    12    9   11 1
    13   11   12 1
    14   12   13 1
    15    8   13 1
    16    1   14 2
    17    3   15 1
    18    6   15 1
    19    6   16 1
    20    8   17 1
    21   17   18 1
    22   16   18 1
    23   12   19 2
    24   15   20 1
    25    5   21 1
    26    7   22 1
    27   22   23 1
    28   16   23 1
    29   22   24 2
    30   13   25 1
    31   17   26 1
    32   26   27 1
    33   26   28 1
    34   26   29 1
    35   18   30 1
    36    3   31 1
    37    4   32 1
    38    5   33 1
    39    9   34 1
    40   13   35 1
    41   15   36 1
    42   16   37 1
    43   17   38 1
    44   18   39 1
    45   20   40 1
    46   21   41 1
    47   21   42 1
    48   21   43 1
    49   25   44 1
    50   27   45 1
    51   27   46 1
    52   27   47 1
    53   28   48 1
    54   28   49 1
    55   28   50 1
    56   29   51 1
    57   29   52 1
    58   29   53 1
    59   30   54 1
@<TRIPOS>MOLECULE
*****
  165   172     0     0     0
SMALL
NO_CHARGES

@<TRIPOS>ATOM
      1 C1         -3.9557   -4.4736    0.0000 CT        1 <0>         0.0000
      2 C2         -3.9557   -5.2986    0.0000 CT        1 <0>         0.0000
      3 C3         -4.6682   -5.7069    0.0000 CT        1 <0>         0.0000
      4 O1         -4.6682   -4.0568    0.0000 OS        1 <0>         0.0000
      5 C4         -5.3808   -5.2986    0.0000 CT        1 <0>         0.0000
      6 C5         -5.3808   -4.4736    0.0000 CT        1 <0>         0.0000
      7 O2         -3.2433   -5.7111    0.0000 OH        1 <0>         0.0000
      8 O3         -4.6682   -6.5319    0.0000 OH        1 <0>         0.0000
      9 O4         -6.0932   -5.7111    0.0000 OH        1 <0>         0.0000
     10 C6         -6.0932   -4.0611    0.0000 CT        1 <0>         0.0000
     11 O5         -6.8098   -4.4777    0.0000 OH        1 <0>         0.0000
     12 O6         -3.2402   -4.0631    0.0000 OS        1 <0>         0.0000
     13 C7          2.4680   -1.5673    0.0000 CT        1 <0>         0.0000
     14 C8          1.7555   -1.9840    0.0000 CT        1 <0>         0.0000
     15 C9         -3.2319   -3.2380    0.0000 CT        1 <0>         0.0000
     16 C10         0.3306   -1.9964    0.0000 CT        1 <0>         0.0000
     17 C11         1.0390   -1.5755    0.0000 CT        1 <0>         0.0000
     18 C12        -2.5151   -2.8340    0.0000 CT        1 <0>         0.0000
     19 C13         2.5266    1.5659    0.0000 CT        1 <0>         0.0000
     20 C14         1.8140    1.9744    0.0000 CT        1 <0>         0.0000
     21 C15         2.4680   -0.7423    0.0000 CT        1 <0>         0.0000
     22 C16        -3.9359   -2.8172    0.0000 CT        1 <0>         0.0000
     23 C17         0.3390   -2.8214    0.0000 CT        1 <0>         0.0000
     24 C18         1.8099    2.7951    0.0000 CT        1 <0>         0.0000
     25 O7          3.2431    1.9744    0.0000 OS        1 <0>         0.0000
     26 O8         -2.5026   -2.0090    0.0000 OS        1 <0>         0.0000
     27 C19        -0.3693   -3.2380    0.0000 CT        1 <0>         0.0000
     28 C20         2.5181    3.2119    0.0000 CT        1 <0>         0.0000
     29 C21        -3.9318   -1.9964    0.0000 CT        1 <0>         0.0000
     30 C22         3.2348    2.7994    0.0000 CT        1 <0>         0.0000
     31 C23         1.7432   -0.3298    0.0000 CT        1 <0>         0.0000
     32 C24        -3.2152   -1.5923    0.0000 CT        1 <0>         0.0000
     33 C25         3.2515   -0.4881    0.0000 CT        1 <0>         0.0000
     34 C26         1.0265   -0.7465    0.0000 CT        1 <0>         0.0000
     35 C27         3.2431    0.3368    0.0000 CT        1 <0>         0.0000
     36 O9          2.5223    0.7410    0.0000 OS        1 <0>         0.0000
     37 O10        -1.7984   -3.2547    0.0000 OS        1 <0>         0.0000
     38 C28        -1.0859   -2.8340    0.0000 CT        1 <0>         0.0000
     39 C29         3.2515   -1.8255    0.0000 CT        1 <0>         0.0000
     40 C30         1.7641   -2.8091    0.0000 CT        1 <0>         0.0000
     41 C31        -0.3818   -1.5839    0.0000 CT        1 <0>         0.0000
     42 C32         1.0556   -3.2256    0.0000 CT        1 <0>         0.0000
     43 C33         3.7348   -1.1590    0.0000 CT        1 <0>         0.0000
     44 O11         3.9390    4.0493    0.0000 OS        1 <0>         0.0000
     45 C34         3.9473    3.2159    0.0000 CT        1 <0>         0.0000
     46 C35        -1.0944   -2.0090    0.0000 CT        1 <0>         0.0000
     47 C36         6.1016    0.3785    0.0000 CM        1 <0>         0.0000
     48 C37         5.3806    0.7785    0.0000 CM        1 <0>         0.0000
     49 O12         1.0973    1.5577    0.0000 OH        1 <0>         0.0000
     50 O13        -4.6569   -3.2215    0.0000 OH        1 <0>         0.0000
     51 O14         1.0932    3.2034    0.0000 OH        1 <0>         0.0000
     52 O15        -4.6443   -1.5798    0.0000 OH        1 <0>         0.0000
     53 O16         2.5139    4.0369    0.0000 OH        1 <0>         0.0000
     54 C38         2.4680   -2.3923    0.0000 CT        1 <0>         0.0000
     55 O17         1.7391    0.4951    0.0000 OH        1 <0>         0.0000
     56 C39         1.7473   -1.1548    0.0000 CT        1 <0>         0.0000
     57 C40         0.3181   -1.1673    0.0000 CT        1 <0>         0.0000
     58 C41         3.9515    0.7619    0.0000 CT        1 <0>         0.0000
     59 C42        -3.2068   -0.7673    0.0000 CT        1 <0>         0.0000
     60 C43         4.6723    0.3577    0.0000 CT        1 <0>         0.0000
     61 C44         3.2307    1.1618    0.0000 CT        1 <0>         0.0000
     62 O18        -3.9192   -0.3506    0.0000 OH        1 <0>         0.0000
     63 C45         6.1099   -0.4464    0.0000 CT        1 <0>         0.0000
     64 C46         6.8098    0.7994    0.0000 CT        1 <0>         0.0000
     65 H1          1.0390   -2.4006    0.0000 HC        1 <0>         0.0000
     66 H2          0.3431   -3.6422    0.0000 HC        1 <0>         0.0000
     67 H3          2.4516    0.0826    0.0000 HC        1 <0>         0.0000
     68 H4          3.9640   -0.0630    0.0000 HC        1 <0>         0.0000
     69 C47         4.6493    4.4689    0.0000 CT        1 <0>         0.0000
     70 O19         5.3695    4.0579    0.0000 OS        1 <0>         0.0000
     71 C48         6.0777    4.4741    0.0000 CT        1 <0>         0.0000
     72 C49         6.0737    5.2994    0.0000 CT        1 <0>         0.0000
     73 C50         5.3552    5.7069    0.0000 CT        1 <0>         0.0000
     74 C51         4.6408    5.2890    0.0000 CT        1 <0>         0.0000
     75 O20         3.9231    5.6959    0.0000 OH        1 <0>         0.0000
     76 O21         5.3499    6.5319    0.0000 OH        1 <0>         0.0000
     77 O22         6.7855    5.7163    0.0000 OH        1 <0>         0.0000
     78 C52        -0.3617   -4.0631    0.0000 CT        1 <0>         0.0000
     79 C53        -1.0859   -3.6464    0.0000 CT        1 <0>         0.0000
     80 H5         -3.9557   -4.4736    0.0000 H2        1 <0>         0.0000
     81 H6         -3.9557   -5.2986    0.0000 H1        1 <0>         0.0000
     82 H7         -4.6682   -5.7069    0.0000 H1        1 <0>         0.0000
     83 H8         -5.3808   -5.2986    0.0000 H1        1 <0>         0.0000
     84 H9         -5.3808   -4.4736    0.0000 H1        1 <0>         0.0000
     85 H10        -3.2433   -5.7111    0.0000 HO        1 <0>         0.0000
     86 H11        -4.6682   -6.5319    0.0000 HO        1 <0>         0.0000
     87 H12        -6.0932   -5.7111    0.0000 HO        1 <0>         0.0000
     88 H13        -6.0932   -4.0611    0.0000 H1        1 <0>         0.0000
     89 H14        -6.0932   -4.0611    0.0000 H1        1 <0>         0.0000
     90 H15        -6.8098   -4.4777    0.0000 HO        1 <0>         0.0000
     91 H16        -3.2319   -3.2380    0.0000 H1        1 <0>         0.0000
     92 H17        -2.5151   -2.8340    0.0000 H2        1 <0>         0.0000
     93 H18         2.5266    1.5659    0.0000 H2        1 <0>         0.0000
     94 H19         1.8140    1.9744    0.0000 H1        1 <0>         0.0000
     95 H20        -3.9359   -2.8172    0.0000 H1        1 <0>         0.0000
     96 H21         1.8099    2.7951    0.0000 H1        1 <0>         0.0000
     97 H22         2.5181    3.2119    0.0000 H1        1 <0>         0.0000
     98 H23        -3.9318   -1.9964    0.0000 H1        1 <0>         0.0000
     99 H24         3.2348    2.7994    0.0000 H1        1 <0>         0.0000
    100 H25         1.7432   -0.3298    0.0000 H1        1 <0>         0.0000
    101 H26        -3.2152   -1.5923    0.0000 H1        1 <0>         0.0000
    102 H27         1.0265   -0.7465    0.0000 HC        1 <0>         0.0000
    103 H28         1.0265   -0.7465    0.0000 HC        1 <0>         0.0000
    104 H29        -1.0859   -2.8340    0.0000 H1        1 <0>         0.0000
    105 H30         3.2515   -1.8255    0.0000 HC        1 <0>         0.0000
    106 H31         3.2515   -1.8255    0.0000 HC        1 <0>         0.0000
    107 H32         1.7641   -2.8091    0.0000 HC        1 <0>         0.0000
    108 H33         1.7641   -2.8091    0.0000 HC        1 <0>         0.0000
    109 H34        -0.3818   -1.5839    0.0000 HC        1 <0>         0.0000
    110 H35        -0.3818   -1.5839    0.0000 HC        1 <0>         0.0000
    111 H36         1.0556   -3.2256    0.0000 HC        1 <0>         0.0000
    112 H37         1.0556   -3.2256    0.0000 HC        1 <0>         0.0000
    113 H38         3.7348   -1.1590    0.0000 HC        1 <0>         0.0000
    114 H39         3.7348   -1.1590    0.0000 HC        1 <0>         0.0000
    115 H40         3.9473    3.2159    0.0000 H1        1 <0>         0.0000
    116 H41         3.9473    3.2159    0.0000 H1        1 <0>         0.0000
    117 H42        -1.0944   -2.0090    0.0000 HC        1 <0>         0.0000
    118 H43        -1.0944   -2.0090    0.0000 HC        1 <0>         0.0000
    119 H44         5.3806    0.7785    0.0000 HA        1 <0>         0.0000
    120 H45         1.0973    1.5577    0.0000 HO        1 <0>         0.0000
    121 H46        -4.6569   -3.2215    0.0000 HO        1 <0>         0.0000
    122 H47         1.0932    3.2034    0.0000 HO        1 <0>         0.0000
    123 H48        -4.6443   -1.5798    0.0000 HO        1 <0>         0.0000
    124 H49         2.5139    4.0369    0.0000 HO        1 <0>         0.0000
    125 H50         2.4680   -2.3923    0.0000 HC        1 <0>         0.0000
    126 H51         2.4680   -2.3923    0.0000 HC        1 <0>         0.0000
    127 H52         2.4680   -2.3923    0.0000 HC        1 <0>         0.0000
    128 H53         1.7391    0.4951    0.0000 HO        1 <0>         0.0000
    129 H54         1.7473   -1.1548    0.0000 HC        1 <0>         0.0000
    130 H55         1.7473   -1.1548    0.0000 HC        1 <0>         0.0000
    131 H56         1.7473   -1.1548    0.0000 HC        1 <0>         0.0000
    132 H57         0.3181   -1.1673    0.0000 HC        1 <0>         0.0000
    133 H58         0.3181   -1.1673    0.0000 HC        1 <0>         0.0000
    134 H59         0.3181   -1.1673    0.0000 HC        1 <0>         0.0000
    135 H60         3.9515    0.7619    0.0000 HC        1 <0>         0.0000
    136 H61         3.9515    0.7619    0.0000 HC        1 <0>         0.0000
    137 H62        -3.2068   -0.7673    0.0000 H1        1 <0>         0.0000
    138 H63        -3.2068   -0.7673    0.0000 H1        1 <0>         0.0000
    139 H64         4.6723    0.3577    0.0000 HC        1 <0>         0.0000
    140 H65         4.6723    0.3577    0.0000 HC        1 <0>         0.0000
    141 H66         3.2307    1.1618    0.0000 HC        1 <0>         0.0000
    142 H67         3.2307    1.1618    0.0000 HC        1 <0>         0.0000
    143 H68         3.2307    1.1618    0.0000 HC        1 <0>         0.0000
    144 H69        -3.9192   -0.3506    0.0000 HO        1 <0>         0.0000
    145 H70         6.1099   -0.4464    0.0000 HC        1 <0>         0.0000
    146 H71         6.1099   -0.4464    0.0000 HC        1 <0>         0.0000
    147 H72         6.1099   -0.4464    0.0000 HC        1 <0>         0.0000
    148 H73         6.8098    0.7994    0.0000 HC        1 <0>         0.0000
    149 H74         6.8098    0.7994    0.0000 HC        1 <0>         0.0000
    150 H75         6.8098    0.7994    0.0000 HC        1 <0>         0.0000
    151 H76         4.6493    4.4689    0.0000 H2        1 <0>         0.0000
    152 H77         6.0777    4.4741    0.0000 H1        1 <0>         0.0000
    153 H78         6.0777    4.4741    0.0000 H1        1 <0>         0.0000
    154 H79         6.0737    5.2994    0.0000 H1        1 <0>         0.0000
    155 H80         5.3552    5.7069    0.0000 H1        1 <0>         0.0000
    156 H81         4.6408    5.2890    0.0000 H1        1 <0>         0.0000
    157 H82         3.9231    5.6959    0.0000 HO        1 <0>         0.0000
    158 H83         5.3499    6.5319    0.0000 HO        1 <0>         0.0000
    159 H84         6.7855    5.7163    0.0000 HO        1 <0>         0.0000
    160 H85        -0.3617   -4.0631    0.0000 HC        1 <0>         0.0000
    161 H86        -0.3617   -4.0631    0.0000 HC        1 <0>         0.0000
    162 H87        -0.3617   -4.0631    0.0000 HC        1 <0>         0.0000
    163 H88        -1.0859   -3.6464    0.0000 HC        1 <0>         0.0000
    164 H89        -1.0859   -3.6464    0.0000 HC        1 <0>         0.0000
    165 H90        -1.0859   -3.6464    0.0000 HC        1 <0>         0.0000
@<TRIPOS>BOND
     1    2    3 1
     2    1    4 1
     3    5    6 1
     4    4    6 1
     5    2    7 1
     6    3    8 1
     7    5    9 1
     8    6   10 1
     9   10   11 1
    10    3    5 1
    11    1    2 1
    12    1   12 1
    13   20   24 1
    14   12   15 1
    15   19   25 1
    16   18   26 1
    17   23   27 1
    18   28   30 1
    19   29   32 1
    20   25   30 1
    21   21   31 1
    22   26   32 1
    23   21   33 1
    24   31   34 1
    25   33   35 1
    26   35   36 1
    27   37   38 1
    28   27   38 1
    29   13   39 1
    30   14   40 1
    31   16   41 1
    32   40   42 1
    33   39   43 1
    34   44   45 1
    35   30   45 1
    36   41   46 1
    37   47   48 2
    38   48   60 1
    39   20   49 1
    40   22   50 1
    41   24   51 1
    42   29   52 1
    43   28   53 1
    44   13   54 1
    45   31   55 1
    46   14   56 1
    47   16   57 1
    48   35   58 1
    49   32   59 1
    50   58   60 1
    51   35   61 1
    52   59   62 1
    53   47   63 1
    54   47   64 1
    55   17   65 1
    56   23   66 1
    57   21   67 1
    58   33   68 1
    59   33   43 1
    60   17   34 1
    61   16   23 1
    62   38   46 1
    63   24   28 1
    64   22   29 1
    65   44   69 1
    66   69   70 1
    67   13   14 1
    68   15   18 1
    69   16   17 1
    70   14   17 1
    71   69   74 1
    72   70   71 1
    73   71   72 1
    74   72   73 1
    75   73   74 1
    76   18   37 1
    77   74   75 1
    78   19   36 1
    79   73   76 1
    80   72   77 1
    81   19   20 1
    82   13   21 1
    83   15   22 1
    84   27   78 1
    85   23   42 1
    86   27   79 1
    87    1   80 1
    88    2   81 1
    89    3   82 1
    90    5   83 1
    91    6   84 1
    92    7   85 1
    93    8   86 1
    94    9   87 1
    95   10   88 1
    96   10   89 1
    97   11   90 1
    98   15   91 1
    99   18   92 1
   100   19   93 1
   101   20   94 1
   102   22   95 1
   103   24   96 1
   104   28   97 1
   105   29   98 1
   106   30   99 1
   107   31  100 1
   108   32  101 1
   109   34  102 1
   110   34  103 1
   111   38  104 1
   112   39  105 1
   113   39  106 1
   114   40  107 1
   115   40  108 1
   116   41  109 1
   117   41  110 1
   118   42  111 1
   119   42  112 1
   120   43  113 1
   121   43  114 1
   122   45  115 1
   123   45  116 1
   124   46  117 1
   125   46  118 1
   126   48  119 1
   127   49  120 1
   128   50  121 1
   129   51  122 1
   130   52  123 1
   131   53  124 1
   132   54  125 1
   133   54  126 1
   134   54  127 1
   135   55  128 1
   136   56  129 1
   137   56  130 1
   138   56  131 1
   139   57  132 1
   140   57  133 1
   141   57  134 1
   142   58  135 1
   143   58  136 1
   144   59  137 1
   145   59  138 1
   146   60  139 1
   147   60  140 1
   148   61  141 1
   149   61  142 1
   150   61  143 1
   151   62  144 1
   152   63  145 1
   153   63  146 1
   154   63  147 1
   155   64  148 1
   156   64  149 1
   157   64  150 1
   158   69  151 1
   159   71  152 1
   160   71  153 1
   161   72  154 1
   162   73  155 1
   163   74  156 1
   164   75  157 1
   165   76  158 1
   166   77  159 1
   167   78  160 1
   168   78  161 1
   169   78  162 1
   170   79  163 1
   171   79  164 1
   172   79  165 1
@<TRIPOS>MOLECULE
*****
  169   176     0     0     0
SMALL
NO_CHARGES

@<TRIPOS>ATOM
      1 C1         15.1996   -4.8731    0.0000 CM        1 <0>         0.0000
      2 C2         15.9141   -4.4606    0.0000 CM        1 <0>         0.0000
      3 C3         16.6285   -4.8731    0.0000 CT        1 <0>         0.0000
      4 C4         17.3430   -4.4606    0.0000 CT        1 <0>         0.0000
      5 C5         18.0575   -4.8731    0.0000 CT        1 <0>         0.0000
      6 O1         18.7719   -4.4606    0.0000 OS        1 <0>         0.0000
      7 C6         19.4864   -4.8731    0.0000 CT        1 <0>         0.0000
      8 C7         18.0661   -3.9852    0.0000 CT        1 <0>         0.0000
      9 C8         20.2009   -4.4606    0.0000 CT        1 <0>         0.0000
     10 C9         20.9154   -4.8731    0.0000 CT        1 <0>         0.0000
     11 C10        20.9154   -5.6981    0.0000 CT        1 <0>         0.0000
     12 C11        20.2009   -6.1106    0.0000 CT        1 <0>         0.0000
     13 O2         19.4864   -5.6981    0.0000 OS        1 <0>         0.0000
     14 O3         20.2008   -3.6356    0.0000 OH        1 <0>         0.0000
     15 O4         21.6298   -4.4606    0.0000 OH        1 <0>         0.0000
     16 O5         21.6298   -6.1106    0.0000 OH        1 <0>         0.0000
     17 C12        20.2009   -6.9356    0.0000 CT        1 <0>         0.0000
     18 O6         20.9154   -7.3481    0.0000 OS        1 <0>         0.0000
     19 C13        14.4851   -4.4606    0.0000 CT        1 <0>         0.0000
     20 C14        15.1996   -5.6981    0.0000 CT        1 <0>         0.0000
     21 C15        13.7813   -8.1591    0.0000 CT        1 <0>         0.0000
     22 C16        14.4958   -7.7466    0.0000 CT        1 <0>         0.0000
     23 C17        15.2103   -8.1591    0.0000 CT        1 <0>         0.0000
     24 C18        15.2103   -8.9841    0.0000 CT        1 <0>         0.0000
     25 C19        14.4958   -9.3966    0.0000 CT        1 <0>         0.0000
     26 C20        13.7813   -8.9841    0.0000 CT        1 <0>         0.0000
     27 C21        15.9247   -7.7466    0.0000 CT        1 <0>         0.0000
     28 C22        16.6392   -8.1591    0.0000 CT        1 <0>         0.0000
     29 C23        16.6392   -8.9841    0.0000 CT        1 <0>         0.0000
     30 C24        15.9247   -9.3966    0.0000 CT        1 <0>         0.0000
     31 C25        15.9247   -6.9216    0.0000 CT        1 <0>         0.0000
     32 C26        16.6392   -6.5091    0.0000 CT        1 <0>         0.0000
     33 C27        17.3537   -6.9216    0.0000 CT        1 <0>         0.0000
     34 C28        17.3537   -7.7466    0.0000 CT        1 <0>         0.0000
     35 C29        18.0681   -6.5091    0.0000 CT        1 <0>         0.0000
     36 C30        18.7826   -6.9216    0.0000 CT        1 <0>         0.0000
     37 C31        18.7826   -7.7466    0.0000 CT        1 <0>         0.0000
     38 O7         16.6118   -5.6352    0.0000 OH        1 <0>         0.0000
     39 C32        14.4585   -6.8937    0.0000 CT        1 <0>         0.0000
     40 C33        16.6118   -7.2852    0.0000 CT        1 <0>         0.0000
     41 C34        17.3390   -8.6275    0.0000 CT        1 <0>         0.0000
     42 C35        13.8712   -9.9140    0.0000 CT        1 <0>         0.0000
     43 C36        15.1017   -9.9000    0.0000 CT        1 <0>         0.0000
     44 O8         13.0741   -9.3127    0.0000 OS        1 <0>         0.0000
     45 C37        22.3336   -9.8163    0.0000 CT        1 <0>         0.0000
     46 C38        21.6189   -9.3985    0.0000 CT        1 <0>         0.0000
     47 C39        20.9154   -9.8108    0.0000 CT        1 <0>         0.0000
     48 C40        20.2007   -9.4039    0.0000 CT        1 <0>         0.0000
     49 C41        20.2007   -8.5850    0.0000 CT        1 <0>         0.0000
     50 C42        20.9154   -8.1726    0.0000 CT        1 <0>         0.0000
     51 O9         21.6189   -8.5795    0.0000 OS        1 <0>         0.0000
     52 O10        19.4861   -9.8163    0.0000 OH        1 <0>         0.0000
     53 O11        19.4861   -8.1726    0.0000 OH        1 <0>         0.0000
     54 O12        20.9154  -10.6354    0.0000 OH        1 <0>         0.0000
     55 O13        23.0481   -9.4039    0.0000 OH        1 <0>         0.0000
     56 C43        12.3597   -8.9002    0.0000 CT        1 <0>         0.0000
     57 C44        11.6452   -9.3127    0.0000 CT        1 <0>         0.0000
     58 C45        10.9307   -8.9002    0.0000 CT        1 <0>         0.0000
     59 C46        10.9307   -8.0752    0.0000 CT        1 <0>         0.0000
     60 C47        11.6452   -7.6627    0.0000 CT        1 <0>         0.0000
     61 O14        12.3597   -8.0752    0.0000 OS        1 <0>         0.0000
     62 O15        10.2162   -9.3127    0.0000 OH        1 <0>         0.0000
     63 O16        10.2162   -7.6627    0.0000 OH        1 <0>         0.0000
     64 C48        11.6452   -6.8377    0.0000 CT        1 <0>         0.0000
     65 O17        10.9307   -6.4252    0.0000 OH        1 <0>         0.0000
     66 O18        11.6893  -10.5991    0.0000 OS        1 <0>         0.0000
     67 C49        10.8643  -11.1725    0.0000 CT        1 <0>         0.0000
     68 C50        10.1400  -10.7774    0.0000 CT        1 <0>         0.0000
     69 C51         9.4357  -11.2071    0.0000 CT        1 <0>         0.0000
     70 C52         9.4557  -12.0318    0.0000 CT        1 <0>         0.0000
     71 C53        10.1800  -12.4269    0.0000 CT        1 <0>         0.0000
     72 O19        10.8842  -11.9972    0.0000 OS        1 <0>         0.0000
     73 O20         8.7114  -10.8121    0.0000 OH        1 <0>         0.0000
     74 O21         8.7515  -12.4616    0.0000 OH        1 <0>         0.0000
     75 C54        10.2000  -13.1818    0.0000 CT        1 <0>         0.0000
     76 O22         9.4958  -13.6814    0.0000 OH        1 <0>         0.0000
     77 O23        10.1377   -9.9979    0.0000 OH        1 <0>         0.0000
     78 H1         15.9141   -4.4606    0.0000 HA        1 <0>         0.0000
     79 H2         16.6285   -4.8731    0.0000 HC        1 <0>         0.0000
     80 H3         16.6285   -4.8731    0.0000 HC        1 <0>         0.0000
     81 H4         17.3430   -4.4606    0.0000 HC        1 <0>         0.0000
     82 H5         17.3430   -4.4606    0.0000 HC        1 <0>         0.0000
     83 H6         19.4864   -4.8731    0.0000 H2        1 <0>         0.0000
     84 H7         18.0661   -3.9852    0.0000 HC        1 <0>         0.0000
     85 H8         18.0661   -3.9852    0.0000 HC        1 <0>         0.0000
     86 H9         18.0661   -3.9852    0.0000 HC        1 <0>         0.0000
     87 H10        20.2009   -4.4606    0.0000 H1        1 <0>         0.0000
     88 H11        20.9154   -4.8731    0.0000 H1        1 <0>         0.0000
     89 H12        20.9154   -5.6981    0.0000 H1        1 <0>         0.0000
     90 H13        20.2009   -6.1106    0.0000 H1        1 <0>         0.0000
     91 H14        20.2008   -3.6356    0.0000 HO        1 <0>         0.0000
     92 H15        21.6298   -4.4606    0.0000 HO        1 <0>         0.0000
     93 H16        21.6298   -6.1106    0.0000 HO        1 <0>         0.0000
     94 H17        20.2009   -6.9356    0.0000 H1        1 <0>         0.0000
     95 H18        20.2009   -6.9356    0.0000 H1        1 <0>         0.0000
     96 H19        14.4851   -4.4606    0.0000 HC        1 <0>         0.0000
     97 H20        14.4851   -4.4606    0.0000 HC        1 <0>         0.0000
     98 H21        14.4851   -4.4606    0.0000 HC        1 <0>         0.0000
     99 H22        15.1996   -5.6981    0.0000 HC        1 <0>         0.0000
    100 H23        15.1996   -5.6981    0.0000 HC        1 <0>         0.0000
    101 H24        15.1996   -5.6981    0.0000 HC        1 <0>         0.0000
    102 H25        13.7813   -8.1591    0.0000 HC        1 <0>         0.0000
    103 H26        13.7813   -8.1591    0.0000 HC        1 <0>         0.0000
    104 H27        14.4958   -7.7466    0.0000 HC        1 <0>         0.0000
    105 H28        15.2103   -8.1591    0.0000 HC        1 <0>         0.0000
    106 H29        15.2103   -8.9841    0.0000 HC        1 <0>         0.0000
    107 H30        13.7813   -8.9841    0.0000 H1        1 <0>         0.0000
    108 H31        15.9247   -7.7466    0.0000 HC        1 <0>         0.0000
    109 H32        16.6392   -8.9841    0.0000 HC        1 <0>         0.0000
    110 H33        16.6392   -8.9841    0.0000 HC        1 <0>         0.0000
    111 H34        15.9247   -9.3966    0.0000 HC        1 <0>         0.0000
    112 H35        15.9247   -9.3966    0.0000 HC        1 <0>         0.0000
    113 H36        15.9247   -6.9216    0.0000 HC        1 <0>         0.0000
    114 H37        15.9247   -6.9216    0.0000 HC        1 <0>         0.0000
    115 H38        16.6392   -6.5091    0.0000 H1        1 <0>         0.0000
    116 H39        17.3537   -6.9216    0.0000 HC        1 <0>         0.0000
    117 H40        18.0681   -6.5091    0.0000 HC        1 <0>         0.0000
    118 H41        18.7826   -6.9216    0.0000 HC        1 <0>         0.0000
    119 H42        18.7826   -6.9216    0.0000 HC        1 <0>         0.0000
    120 H43        18.7826   -7.7466    0.0000 HC        1 <0>         0.0000
    121 H44        18.7826   -7.7466    0.0000 HC        1 <0>         0.0000
    122 H45        16.6118   -5.6352    0.0000 HO        1 <0>         0.0000
    123 H46        14.4585   -6.8937    0.0000 HC        1 <0>         0.0000
    124 H47        14.4585   -6.8937    0.0000 HC        1 <0>         0.0000
    125 H48        14.4585   -6.8937    0.0000 HC        1 <0>         0.0000
    126 H49        16.6118   -7.2852    0.0000 HC        1 <0>         0.0000
    127 H50        16.6118   -7.2852    0.0000 HC        1 <0>         0.0000
    128 H51        16.6118   -7.2852    0.0000 HC        1 <0>         0.0000
    129 H52        17.3390   -8.6275    0.0000 HC        1 <0>         0.0000
    130 H53        17.3390   -8.6275    0.0000 HC        1 <0>         0.0000
    131 H54        17.3390   -8.6275    0.0000 HC        1 <0>         0.0000
    132 H55        13.8712   -9.9140    0.0000 HC        1 <0>         0.0000
    133 H56        13.8712   -9.9140    0.0000 HC        1 <0>         0.0000
    134 H57        13.8712   -9.9140    0.0000 HC        1 <0>         0.0000
    135 H58        15.1017   -9.9000    0.0000 HC        1 <0>         0.0000
    136 H59        15.1017   -9.9000    0.0000 HC        1 <0>         0.0000
    137 H60        15.1017   -9.9000    0.0000 HC        1 <0>         0.0000
    138 H61        22.3336   -9.8163    0.0000 H1        1 <0>         0.0000
    139 H62        22.3336   -9.8163    0.0000 H1        1 <0>         0.0000
    140 H63        21.6189   -9.3985    0.0000 H1        1 <0>         0.0000
    141 H64        20.9154   -9.8108    0.0000 H1        1 <0>         0.0000
    142 H65        20.2007   -9.4039    0.0000 H1        1 <0>         0.0000
    143 H66        20.2007   -8.5850    0.0000 H1        1 <0>         0.0000
    144 H67        20.9154   -8.1726    0.0000 H2        1 <0>         0.0000
    145 H68        19.4861   -9.8163    0.0000 HO        1 <0>         0.0000
    146 H69        19.4861   -8.1726    0.0000 HO        1 <0>         0.0000
    147 H70        20.9154  -10.6354    0.0000 HO        1 <0>         0.0000
    148 H71        23.0481   -9.4039    0.0000 HO        1 <0>         0.0000
    149 H72        12.3597   -8.9002    0.0000 H2        1 <0>         0.0000
    150 H73        11.6452   -9.3127    0.0000 H1        1 <0>         0.0000
    151 H74        10.9307   -8.9002    0.0000 H1        1 <0>         0.0000
    152 H75        10.9307   -8.0752    0.0000 H1        1 <0>         0.0000
    153 H76        11.6452   -7.6627    0.0000 H1        1 <0>         0.0000
    154 H77        10.2162   -9.3127    0.0000 HO        1 <0>         0.0000
    155 H78        10.2162   -7.6627    0.0000 HO        1 <0>         0.0000
    156 H79        11.6452   -6.8377    0.0000 H1        1 <0>         0.0000
    157 H80        11.6452   -6.8377    0.0000 H1        1 <0>         0.0000
    158 H81        10.9307   -6.4252    0.0000 HO        1 <0>         0.0000
    159 H82        10.8643  -11.1725    0.0000 H2        1 <0>         0.0000
    160 H83        10.1400  -10.7774    0.0000 H1        1 <0>         0.0000
    161 H84         9.4357  -11.2071    0.0000 H1        1 <0>         0.0000
    162 H85         9.4557  -12.0318    0.0000 H1        1 <0>         0.0000
    163 H86        10.1800  -12.4269    0.0000 H1        1 <0>         0.0000
    164 H87         8.7114  -10.8121    0.0000 HO        1 <0>         0.0000
    165 H88         8.7515  -12.4616    0.0000 HO        1 <0>         0.0000
    166 H89        10.2000  -13.1818    0.0000 H1        1 <0>         0.0000
    167 H90        10.2000  -13.1818    0.0000 H1        1 <0>         0.0000
    168 H91         9.4958  -13.6814    0.0000 HO        1 <0>         0.0000
    169 H92        10.1377   -9.9979    0.0000 HO        1 <0>         0.0000
@<TRIPOS>BOND
     1    1    2 2
     2    2    3 1
     3    3    4 1
     4    4    5 1
     5    5    6 1
     6    6    7 1
     7    5    8 1
     8    7    9 1
     9    9   10 1
    10   10   11 1
    11   11   12 1
    12   12   13 1
    13    7   13 1
    14    9   14 1
    15   10   15 1
    16   11   16 1
    17   12   17 1
    18   17   18 1
    19    1   19 1
    20    1   20 1
    21   21   22 1
    22   22   23 1
    23   24   25 1
    24   25   26 1
    25   21   26 1
    26   23   27 1
    27   28   29 1
    28   29   30 1
    29   24   30 1
    30   23   24 1
    31   31   32 1
    32   32   33 1
    33   28   34 1
    34   27   28 1
    35   27   31 1
    36   33   35 1
    37   35   36 1
    38   36   37 1
    39   33   34 1
    40   34   37 1
    41    5   35 1
    42   32   38 1
    43   22   39 1
    44   28   40 1
    45   34   41 1
    46   25   42 1
    47   25   43 1
    48   26   44 1
    49   45   46 1
    50   46   47 1
    51   47   48 1
    52   48   49 1
    53   49   50 1
    54   50   51 1
    55   46   51 1
    56   48   52 1
    57   49   53 1
    58   18   50 1
    59   47   54 1
    60   45   55 1
    61   44   56 1
    62   56   57 1
    63   57   58 1
    64   58   59 1
    65   59   60 1
    66   60   61 1
    67   56   61 1
    68   58   62 1
    69   59   63 1
    70   60   64 1
    71   64   65 1
    72   66   67 1
    73   67   68 1
    74   68   69 1
    75   69   70 1
    76   70   71 1
    77   71   72 1
    78   67   72 1
    79   69   73 1
    80   70   74 1
    81   71   75 1
    82   75   76 1
    83   57   66 1
    84   68   77 1
    85    2   78 1
    86    3   79 1
    87    3   80 1
    88    4   81 1
    89    4   82 1
    90    7   83 1
    91    8   84 1
    92    8   85 1
    93    8   86 1
    94    9   87 1
    95   10   88 1
    96   11   89 1
    97   12   90 1
    98   14   91 1
    99   15   92 1
   100   16   93 1
   101   17   94 1
   102   17   95 1
   103   19   96 1
   104   19   97 1
   105   19   98 1
   106   20   99 1
   107   20  100 1
   108   20  101 1
   109   21  102 1
   110   21  103 1
   111   22  104 1
   112   23  105 1
   113   24  106 1
   114   26  107 1
   115   27  108 1
   116   29  109 1
   117   29  110 1
   118   30  111 1
   119   30  112 1
   120   31  113 1
   121   31  114 1
   122   32  115 1
   123   33  116 1
   124   35  117 1
   125   36  118 1
   126   36  119 1
   127   37  120 1
   128   37  121 1
   129   38  122 1
   130   39  123 1
   131   39  124 1
   132   39  125 1
   133   40  126 1
   134   40  127 1
   135   40  128 1
   136   41  129 1
   137   41  130 1
   138   41  131 1
   139   42  132 1
   140   42  133 1
   141   42  134 1
   142   43  135 1
   143   43  136 1
   144   43  137 1
   145   45  138 1
   146   45  139 1
   147   46  140 1
   148   47  141 1
   149   48  142 1
   150   49  143 1
   151   50  144 1
   152   52  145 1
   153   53  146 1
   154   54  147 1
   155   55  148 1
   156   56  149 1
   157   57  150 1
   158   58  151 1
   159   59  152 1
   160   60  153 1
   161   62  154 1
   162   63  155 1
   163   64  156 1
   164   64  157 1
   165   65  158 1
   166   67  159 1
   167   68  160 1
   168   69  161 1
   169   70  162 1
   170   71  163 1
   171   73  164 1
   172   74  165 1
   173   75  166 1
   174   75  167 1
   175   76  168 1
   176   77  169 1
@<TRIPOS>MOLECULE
Ginsenoside Rg1
  128   133     0     0     0
SMALL
NO_CHARGES

@<TRIPOS>ATOM
      1 O1          5.1025   -2.7311    0.0000 OS        1 <0>         0.0000
      2 O2          5.8269    1.8636    0.0000 OH        1 <0>         0.0000
      3 O3          7.8347    2.4458    0.0000 OS        1 <0>         0.0000
      4 O4          2.0920   -1.8922    0.0000 OH        1 <0>         0.0000
      5 O5          6.5314   -2.7257    0.0000 OS        1 <0>         0.0000
      6 O6          8.8982    3.4001    0.0000 OS        1 <0>         0.0000
      7 O7          5.1088   -4.3812    0.0000 OH        1 <0>         0.0000
      8 O8          6.5410   -5.2007    0.0000 OH        1 <0>         0.0000
      9 O9          8.9367    1.2177    0.0000 OH        1 <0>         0.0000
     10 O10         7.9668   -4.3702    0.0000 OH        1 <0>         0.0000
     11 O11        10.5512    1.5580    0.0000 OH        1 <0>         0.0000
     12 O12        11.0638    3.1263    0.0000 OH        1 <0>         0.0000
     13 O13         8.6765   -3.1300    0.0000 OH        1 <0>         0.0000
     14 O14         9.4109    4.9686    0.0000 OH        1 <0>         0.0000
     15 C1          5.8269   -0.6115    0.0000 CT        1 <0>         0.0000
     16 C2          6.5414   -0.1990    0.0000 CT        1 <0>         0.0000
     17 C3          5.1125   -0.1990    0.0000 CT        1 <0>         0.0000
     18 C4          4.3617   -0.6171    0.0000 CT        1 <0>         0.0000
     19 C5          6.5414    0.6260    0.0000 CT        1 <0>         0.0000
     20 C6          4.3550   -1.4765    0.0000 CT        1 <0>         0.0000
     21 C7          5.8402   -1.4708    0.0000 CT        1 <0>         0.0000
     22 C8          5.1125    0.6260    0.0000 CT        1 <0>         0.0000
     23 C9          7.3220    0.8774    0.0000 CT        1 <0>         0.0000
     24 C10         5.8269    1.0385    0.0000 CT        1 <0>         0.0000
     25 C11         7.3220   -0.4504    0.0000 CT        1 <0>         0.0000
     26 C12         5.0993   -1.9062    0.0000 CT        1 <0>         0.0000
     27 C13         3.5833   -1.9300    0.0000 CT        1 <0>         0.0000
     28 C14         7.8035    0.2135    0.0000 CT        1 <0>         0.0000
     29 C15         3.5970   -0.1518    0.0000 CT        1 <0>         0.0000
     30 C16         6.3573   -1.2435    0.0000 CT        1 <0>         0.0000
     31 C17         6.8236   -0.9742    0.0000 CT        1 <0>         0.0000
     32 C18         4.3681    0.2078    0.0000 CT        1 <0>         0.0000
     33 C19         2.8081   -1.4825    0.0000 CT        1 <0>         0.0000
     34 C20         7.5784    1.6617    0.0000 CT        1 <0>         0.0000
     35 C21         2.8150   -0.5873    0.0000 CT        1 <0>         0.0000
     36 C22         3.1736   -2.6461    0.0000 CT        1 <0>         0.0000
     37 C23         3.9985   -2.6429    0.0000 CT        1 <0>         0.0000
     38 C24         8.3625    1.4053    0.0000 CT        1 <0>         0.0000
     39 C25         6.7942    1.9179    0.0000 CT        1 <0>         0.0000
     40 C26         5.8185   -3.1409    0.0000 CT        1 <0>         0.0000
     41 C27         8.5327    0.5981    0.0000 CT        1 <0>         0.0000
     42 C28         8.6420    2.6160    0.0000 CT        1 <0>         0.0000
     43 C29         5.8217   -3.9659    0.0000 CT        1 <0>         0.0000
     44 C30         6.5378   -4.3757    0.0000 CT        1 <0>         0.0000
     45 C31         9.1929    2.0019    0.0000 CT        1 <0>         0.0000
     46 C32         7.2475   -3.1354    0.0000 CT        1 <0>         0.0000
     47 C33         9.3169    0.3417    0.0000 CM        1 <0>         0.0000
     48 C34         7.2507   -3.9604    0.0000 CT        1 <0>         0.0000
     49 C35        10.0002    2.1720    0.0000 CT        1 <0>         0.0000
     50 C36         9.7055    3.5703    0.0000 CT        1 <0>         0.0000
     51 C37        10.2565    2.9562    0.0000 CT        1 <0>         0.0000
     52 C38         7.9604   -2.7202    0.0000 CT        1 <0>         0.0000
     53 C39         9.4870   -0.4656    0.0000 CM        1 <0>         0.0000
     54 C40         9.9618    4.3545    0.0000 CT        1 <0>         0.0000
     55 C41        10.2712   -0.7218    0.0000 CT        1 <0>         0.0000
     56 C42         8.8730   -1.0165    0.0000 CT        1 <0>         0.0000
     57 H1          5.8269    1.8636    0.0000 HO        1 <0>         0.0000
     58 H2          2.0920   -1.8922    0.0000 HO        1 <0>         0.0000
     59 H3          5.1088   -4.3812    0.0000 HO        1 <0>         0.0000
     60 H4          6.5410   -5.2007    0.0000 HO        1 <0>         0.0000
     61 H5          8.9367    1.2177    0.0000 HO        1 <0>         0.0000
     62 H6          7.9668   -4.3702    0.0000 HO        1 <0>         0.0000
     63 H7         10.5512    1.5580    0.0000 HO        1 <0>         0.0000
     64 H8         11.0638    3.1263    0.0000 HO        1 <0>         0.0000
     65 H9          8.6765   -3.1300    0.0000 HO        1 <0>         0.0000
     66 H10         9.4109    4.9686    0.0000 HO        1 <0>         0.0000
     67 H11         5.1125   -0.1990    0.0000 HC        1 <0>         0.0000
     68 H12         6.5414    0.6260    0.0000 HC        1 <0>         0.0000
     69 H13         4.3550   -1.4765    0.0000 HC        1 <0>         0.0000
     70 H14         5.8402   -1.4708    0.0000 HC        1 <0>         0.0000
     71 H15         5.8402   -1.4708    0.0000 HC        1 <0>         0.0000
     72 H16         5.1125    0.6260    0.0000 HC        1 <0>         0.0000
     73 H17         5.1125    0.6260    0.0000 HC        1 <0>         0.0000
     74 H18         7.3220    0.8774    0.0000 HC        1 <0>         0.0000
     75 H19         5.8269    1.0385    0.0000 H1        1 <0>         0.0000
     76 H20         7.3220   -0.4504    0.0000 HC        1 <0>         0.0000
     77 H21         7.3220   -0.4504    0.0000 HC        1 <0>         0.0000
     78 H22         5.0993   -1.9062    0.0000 H1        1 <0>         0.0000
     79 H23         7.8035    0.2135    0.0000 HC        1 <0>         0.0000
     80 H24         7.8035    0.2135    0.0000 HC        1 <0>         0.0000
     81 H25         3.5970   -0.1518    0.0000 HC        1 <0>         0.0000
     82 H26         3.5970   -0.1518    0.0000 HC        1 <0>         0.0000
     83 H27         6.3573   -1.2435    0.0000 HC        1 <0>         0.0000
     84 H28         6.3573   -1.2435    0.0000 HC        1 <0>         0.0000
     85 H29         6.3573   -1.2435    0.0000 HC        1 <0>         0.0000
     86 H30         6.8236   -0.9742    0.0000 HC        1 <0>         0.0000
     87 H31         6.8236   -0.9742    0.0000 HC        1 <0>         0.0000
     88 H32         6.8236   -0.9742    0.0000 HC        1 <0>         0.0000
     89 H33         4.3681    0.2078    0.0000 HC        1 <0>         0.0000
     90 H34         4.3681    0.2078    0.0000 HC        1 <0>         0.0000
     91 H35         4.3681    0.2078    0.0000 HC        1 <0>         0.0000
     92 H36         2.8081   -1.4825    0.0000 H1        1 <0>         0.0000
     93 H37         2.8150   -0.5873    0.0000 HC        1 <0>         0.0000
     94 H38         2.8150   -0.5873    0.0000 HC        1 <0>         0.0000
     95 H39         3.1736   -2.6461    0.0000 HC        1 <0>         0.0000
     96 H40         3.1736   -2.6461    0.0000 HC        1 <0>         0.0000
     97 H41         3.1736   -2.6461    0.0000 HC        1 <0>         0.0000
     98 H42         3.9985   -2.6429    0.0000 HC        1 <0>         0.0000
     99 H43         3.9985   -2.6429    0.0000 HC        1 <0>         0.0000
    100 H44         3.9985   -2.6429    0.0000 HC        1 <0>         0.0000
    101 H45         8.3625    1.4053    0.0000 HC        1 <0>         0.0000
    102 H46         8.3625    1.4053    0.0000 HC        1 <0>         0.0000
    103 H47         6.7942    1.9179    0.0000 HC        1 <0>         0.0000
    104 H48         6.7942    1.9179    0.0000 HC        1 <0>         0.0000
    105 H49         6.7942    1.9179    0.0000 HC        1 <0>         0.0000
    106 H50         5.8185   -3.1409    0.0000 H2        1 <0>         0.0000
    107 H51         8.5327    0.5981    0.0000 HC        1 <0>         0.0000
    108 H52         8.5327    0.5981    0.0000 HC        1 <0>         0.0000
    109 H53         8.6420    2.6160    0.0000 H2        1 <0>         0.0000
    110 H54         5.8217   -3.9659    0.0000 H1        1 <0>         0.0000
    111 H55         6.5378   -4.3757    0.0000 H1        1 <0>         0.0000
    112 H56         9.1929    2.0019    0.0000 H1        1 <0>         0.0000
    113 H57         7.2475   -3.1354    0.0000 H1        1 <0>         0.0000
    114 H58         9.3169    0.3417    0.0000 HA        1 <0>         0.0000
    115 H59         7.2507   -3.9604    0.0000 H1        1 <0>         0.0000
    116 H60        10.0002    2.1720    0.0000 H1        1 <0>         0.0000
    117 H61         9.7055    3.5703    0.0000 H1        1 <0>         0.0000
    118 H62        10.2565    2.9562    0.0000 H1        1 <0>         0.0000
    119 H63         7.9604   -2.7202    0.0000 H1        1 <0>         0.0000
    120 H64         7.9604   -2.7202    0.0000 H1        1 <0>         0.0000
    121 H65         9.9618    4.3545    0.0000 H1        1 <0>         0.0000
    122 H66         9.9618    4.3545    0.0000 H1        1 <0>         0.0000
    123 H67        10.2712   -0.7218    0.0000 HC        1 <0>         0.0000
    124 H68        10.2712   -0.7218    0.0000 HC        1 <0>         0.0000
    125 H69        10.2712   -0.7218    0.0000 HC        1 <0>         0.0000
    126 H70         8.8730   -1.0165    0.0000 HC        1 <0>         0.0000
    127 H71         8.8730   -1.0165    0.0000 HC        1 <0>         0.0000
    128 H72         8.8730   -1.0165    0.0000 HC        1 <0>         0.0000
@<TRIPOS>BOND
     1    1   26 1
     2    1   40 1
     3    2   24 1
     4    3   34 1
     5    3   42 1
     6    4   33 1
     7    5   40 1
     8    5   46 1
     9    6   42 1
    10    6   50 1
    11    7   43 1
    12    8   44 1
    13    9   45 1
    14   10   48 1
    15   11   49 1
    16   12   51 1
    17   13   52 1
    18   14   54 1
    19   15   16 1
    20   15   17 1
    21   15   21 1
    22   15   30 1
    23   16   19 1
    24   16   25 1
    25   16   31 1
    26   17   18 1
    27   17   22 1
    28   18   20 1
    29   18   29 1
    30   18   32 1
    31   19   23 1
    32   19   24 1
    33   20   26 1
    34   20   27 1
    35   21   26 1
    36   22   24 1
    37   23   28 1
    38   23   34 1
    39   25   28 1
    40   27   33 1
    41   27   36 1
    42   27   37 1
    43   29   35 1
    44   33   35 1
    45   34   38 1
    46   34   39 1
    47   38   41 1
    48   40   43 1
    49   41   47 1
    50   42   45 1
    51   43   44 1
    52   44   48 1
    53   45   49 1
    54   46   48 1
    55   46   52 1
    56   47   53 2
    57   49   51 1
    58   50   51 1
    59   50   54 1
    60   53   55 1
    61   53   56 1
    62    2   57 1
    63    4   58 1
    64    7   59 1
    65    8   60 1
    66    9   61 1
    67   10   62 1
    68   11   63 1
    69   12   64 1
    70   13   65 1
    71   14   66 1
    72   17   67 1
    73   19   68 1
    74   20   69 1
    75   21   70 1
    76   21   71 1
    77   22   72 1
    78   22   73 1
    79   23   74 1
    80   24   75 1
    81   25   76 1
    82   25   77 1
    83   26   78 1
    84   28   79 1
    85   28   80 1
    86   29   81 1
    87   29   82 1
    88   30   83 1
    89   30   84 1
    90   30   85 1
    91   31   86 1
    92   31   87 1
    93   31   88 1
    94   32   89 1
    95   32   90 1
    96   32   91 1
    97   33   92 1
    98   35   93 1
    99   35   94 1
   100   36   95 1
   101   36   96 1
   102   36   97 1
   103   37   98 1
   104   37   99 1
   105   37  100 1
   106   38  101 1
   107   38  102 1
   108   39  103 1
   109   39  104 1
   110   39  105 1
   111   40  106 1
   112   41  107 1
   113   41  108 1
   114   42  109 1
   115   43  110 1
   116   44  111 1
   117   45  112 1
   118   46  113 1
   119   47  114 1
   120   48  115 1
   121   49  116 1
   122   50  117 1
   123   51  118 1
   124   52  119 1
   125   52  120 1
   126   54  121 1
   127   54  122 1
   128   55  123 1
   129   55  124 1
   130   55  125 1
   131   56  126 1
   132   56  127 1
   133   56  128 1
@<TRIPOS>MOLECULE
*****
   16    16     0     0     0
SMALL
NO_CHARGES

@<TRIPOS>ATOM
      1 O1         21.7215  -14.7720    0.0000 OH        1 <0>         0.0000
      2 C1         21.0069  -16.0095    0.0000 CA        1 <0>         0.0000
      3 C2         21.0069  -15.1845    0.0000 CT        1 <0>         0.0000
      4 C3         20.2925  -16.4220    0.0000 CA        1 <0>         0.0000
      5 C4         21.7215  -16.4220    0.0000 CA        1 <0>         0.0000
      6 C5         20.2925  -17.2470    0.0000 CA        1 <0>         0.0000
      7 C6         21.7215  -17.2470    0.0000 CA        1 <0>         0.0000
      8 C7         21.0069  -17.6595    0.0000 CA        1 <0>         0.0000
      9 H1         21.7215  -14.7720    0.0000 HO        1 <0>         0.0000
     10 H2         21.0069  -15.1845    0.0000 H1        1 <0>         0.0000
     11 H3         21.0069  -15.1845    0.0000 H1        1 <0>         0.0000
     12 H4         20.2925  -16.4220    0.0000 HA        1 <0>         0.0000
     13 H5         21.7215  -16.4220    0.0000 HA        1 <0>         0.0000
     14 H6         20.2925  -17.2470    0.0000 HA        1 <0>         0.0000
     15 H7         21.7215  -17.2470    0.0000 HA        1 <0>         0.0000
     16 H8         21.0069  -17.6595    0.0000 HA        1 <0>         0.0000
@<TRIPOS>BOND
     1    1    3 1
     2    2    3 1
     3    2    4 ar
     4    2    5 ar
     5    4    6 ar
     6    5    7 ar
     7    6    8 ar
     8    7    8 ar
     9    1    9 1
    10    3   10 1
    11    3   11 1
    12    4   12 1
    13    5   13 1
    14    6   14 1
    15    7   15 1
    16    8   16 1
@<TRIPOS>MOLECULE
*****
   68    71     0     0     0
SMALL
NO_CHARGES

@<TRIPOS>ATOM
      1 C1         12.1249   -7.6292    0.0000 CT        1 <0>         0.0000
      2 C2         12.1249   -8.4368    0.0000 CT        1 <0>         0.0000
      3 C3         10.6963   -8.4368    0.0000 CT        1 <0>         0.0000
      4 C4         11.4261   -8.8327    0.0000 CT        1 <0>         0.0000
      5 C5          9.9820   -8.8327    0.0000 CT        1 <0>         0.0000
      6 C6         12.9091   -7.3730    0.0000 CT        1 <0>         0.0000
      7 C7         11.4261   -7.2100    0.0000 CT        1 <0>         0.0000
      8 C8         10.6963   -7.6292    0.0000 CT        1 <0>         0.0000
      9 C9         12.9091   -8.6930    0.0000 CT        1 <0>         0.0000
     10 C10        13.3750   -8.0408    0.0000 CT        1 <0>         0.0000
     11 C11        11.4261   -9.6712    0.0000 CT        1 <0>         0.0000
     12 C12         9.9820   -9.6712    0.0000 CT        1 <0>         0.0000
     13 C13        10.6963  -10.0827    0.0000 CT        1 <0>         0.0000
     14 C14        12.9091   -6.5268    0.0000 CT        1 <0>         0.0000
     15 C15        12.1249   -6.7829    0.0000 CT        1 <0>         0.0000
     16 C16         9.9820   -8.0252    0.0000 CT        1 <0>         0.0000
     17 C17         9.2832   -8.4368    0.0000 CT        1 <0>         0.0000
     18 C18        14.3454   -6.5034    0.0000 CT        1 <0>         0.0000
     19 C19        13.6390   -6.0997    0.0000 CT        1 <0>         0.0000
     20 C20         9.2832  -10.0827    0.0000 CT        1 <0>         0.0000
     21 C21        12.1560   -5.8815    0.0000 CT        1 <0>         0.0000
     22 C22        15.0520   -6.0764    0.0000 C         1 <0>         0.0000
     23 C23         8.5612   -8.8395    0.0000 CT        1 <0>         0.0000
     24 C24         8.5612   -9.6644    0.0000 CT        1 <0>         0.0000
     25 H1         12.1249   -9.2675    0.0000 HC        1 <0>         0.0000
     26 H2         11.4339   -8.0175    0.0000 HC        1 <0>         0.0000
     27 H3         10.6963   -9.2675    0.0000 HC        1 <0>         0.0000
     28 H4         13.6312   -6.9693    0.0000 HC        1 <0>         0.0000
     29 H5          9.9779  -10.3883    0.0000 HC        1 <0>         0.0000
     30 O1         15.7802   -6.6071    0.0000 O         1 <0>         0.0000
     31 O2         15.1752   -5.3559    0.0000 OH        1 <0>         0.0000
     32 O3          7.9818   -9.9500    0.0000 OH        1 <0>         0.0000
     33 O4         11.9976   -9.8804    0.0000 OH        1 <0>         0.0000
     34 H6         11.4261   -7.2100    0.0000 HC        1 <0>         0.0000
     35 H7         11.4261   -7.2100    0.0000 HC        1 <0>         0.0000
     36 H8         10.6963   -7.6292    0.0000 HC        1 <0>         0.0000
     37 H9         10.6963   -7.6292    0.0000 HC        1 <0>         0.0000
     38 H10        12.9091   -8.6930    0.0000 HC        1 <0>         0.0000
     39 H11        12.9091   -8.6930    0.0000 HC        1 <0>         0.0000
     40 H12        13.3750   -8.0408    0.0000 HC        1 <0>         0.0000
     41 H13        13.3750   -8.0408    0.0000 HC        1 <0>         0.0000
     42 H14        11.4261   -9.6712    0.0000 H1        1 <0>         0.0000
     43 H15        10.6963  -10.0827    0.0000 HC        1 <0>         0.0000
     44 H16        10.6963  -10.0827    0.0000 HC        1 <0>         0.0000
     45 H17        12.9091   -6.5268    0.0000 HC        1 <0>         0.0000
     46 H18        12.1249   -6.7829    0.0000 HC        1 <0>         0.0000
     47 H19        12.1249   -6.7829    0.0000 HC        1 <0>         0.0000
     48 H20        12.1249   -6.7829    0.0000 HC        1 <0>         0.0000
     49 H21         9.9820   -8.0252    0.0000 HC        1 <0>         0.0000
     50 H22         9.9820   -8.0252    0.0000 HC        1 <0>         0.0000
     51 H23         9.9820   -8.0252    0.0000 HC        1 <0>         0.0000
     52 H24         9.2832   -8.4368    0.0000 HC        1 <0>         0.0000
     53 H25         9.2832   -8.4368    0.0000 HC        1 <0>         0.0000
     54 H26        14.3454   -6.5034    0.0000 HC        1 <0>         0.0000
     55 H27        14.3454   -6.5034    0.0000 HC        1 <0>         0.0000
     56 H28        13.6390   -6.0997    0.0000 HC        1 <0>         0.0000
     57 H29        13.6390   -6.0997    0.0000 HC        1 <0>         0.0000
     58 H30         9.2832  -10.0827    0.0000 HC        1 <0>         0.0000
     59 H31         9.2832  -10.0827    0.0000 HC        1 <0>         0.0000
     60 H32        12.1560   -5.8815    0.0000 HC        1 <0>         0.0000
     61 H33        12.1560   -5.8815    0.0000 HC        1 <0>         0.0000
     62 H34        12.1560   -5.8815    0.0000 HC        1 <0>         0.0000
     63 H35         8.5612   -8.8395    0.0000 HC        1 <0>         0.0000
     64 H36         8.5612   -8.8395    0.0000 HC        1 <0>         0.0000
     65 H37         8.5612   -9.6644    0.0000 H1        1 <0>         0.0000
     66 H38        15.1752   -5.3559    0.0000 HO        1 <0>         0.0000
     67 H39         7.9818   -9.9500    0.0000 HO        1 <0>         0.0000
     68 H40        11.9976   -9.8804    0.0000 HO        1 <0>         0.0000
@<TRIPOS>BOND
     1    1    2 1
     2    1    6 1
     3    1    7 1
     4    1   15 1
     5    2    4 1
     6    2    9 1
     7    2   25 1
     8    3    8 1
     9    3    5 1
    10    3    4 1
    11    3   27 1
    12    4   11 1
    13    4   26 1
    14    5   12 1
    15    5   16 1
    16    5   17 1
    17    6   10 1
    18    6   14 1
    19    6   28 1
    20    7    8 1
    21    9   10 1
    22   11   13 1
    23   12   20 1
    24   12   13 1
    25   14   19 1
    26   14   21 1
    27   17   23 1
    28   18   19 1
    29   18   22 1
    30   20   24 1
    31   23   24 1
    32   12   29 1
    33   22   30 2
    34   22   31 1
    35   24   32 1
    36   11   33 1
    37    7   34 1
    38    7   35 1
    39    8   36 1
    40    8   37 1
    41    9   38 1
    42    9   39 1
    43   10   40 1
    44   10   41 1
    45   11   42 1
    46   13   43 1
    47   13   44 1
    48   14   45 1
    49   15   46 1
    50   15   47 1
    51   15   48 1
    52   16   49 1
    53   16   50 1
    54   16   51 1
    55   17   52 1
    56   17   53 1
    57   18   54 1
    58   18   55 1
    59   19   56 1
    60   19   57 1
    61   20   58 1
    62   20   59 1
    63   21   60 1
    64   21   61 1
    65   21   62 1
    66   23   63 1
    67   23   64 1
    68   24   65 1
    69   31   66 1
    70   32   67 1
    71   33   68 1
@<TRIPOS>MOLECULE
*****
   71    74     0     0     0
SMALL
NO_CHARGES

@<TRIPOS>ATOM
      1 C1          7.2534    2.1535    0.0000 CT        1 <0>         0.0000
      2 C2          8.5698   -2.8636    0.0000 CT        1 <0>         0.0000
      3 C3          4.0950   -3.4721    0.0000 CT        1 <0>         0.0000
      4 C4          6.2068   -2.2686    0.0000 CT        1 <0>         0.0000
      5 C5          7.5890    1.3998    0.0000 CT        1 <0>         0.0000
      6 C6          7.1041    0.7322    0.0000 CT        1 <0>         0.0000
      7 C7          7.4396   -0.0213    0.0000 CT        1 <0>         0.0000
      8 C8          6.9547   -0.6888    0.0000 CT        1 <0>         0.0000
      9 C9          4.9273   -5.5935    0.0000 CT        1 <0>         0.0000
     10 C10         5.6418   -5.1810    0.0000 CT        1 <0>         0.0000
     11 C11         2.7839   -4.3560    0.0000 CT        1 <0>         0.0000
     12 C12         4.9273   -3.1185    0.0000 CT        1 <0>         0.0000
     13 C13         7.1409   -4.1984    0.0000 CT        1 <0>         0.0000
     14 C14         3.4984   -3.9435    0.0000 CT        1 <0>         0.0000
     15 C15         5.6418   -2.7060    0.0000 CT        1 <0>         0.0000
     16 C16         7.6258   -3.5310    0.0000 CT        1 <0>         0.0000
     17 C17         3.4984   -5.5935    0.0000 CM        1 <0>         0.0000
     18 C18         7.8554   -2.4511    0.0000 C         1 <0>         0.0000
     19 C19         4.2129   -5.1810    0.0000 CM        1 <0>         0.0000
     20 C20         2.7839   -5.1810    0.0000 C         1 <0>         0.0000
     21 C21         5.6418   -4.3560    0.0000 CT        1 <0>         0.0000
     22 C22         4.9273   -3.9435    0.0000 CT        1 <0>         0.0000
     23 C23         6.3563   -3.9435    0.0000 CT        1 <0>         0.0000
     24 C24         7.2903   -1.4423    0.0000 C         1 <0>         0.0000
     25 C25         4.2129   -4.3560    0.0000 CT        1 <0>         0.0000
     26 C26         6.3563   -3.1185    0.0000 CT        1 <0>         0.0000
     27 C27         7.1409   -2.8636    0.0000 CT        1 <0>         0.0000
     28 O1          7.8554   -1.6261    0.0000 O         1 <0>         0.0000
     29 O2          2.0694   -5.5935    0.0000 O         1 <0>         0.0000
     30 O3          8.0972   -1.2709    0.0000 O         1 <0>         0.0000
     31 O4          6.8052   -2.1099    0.0000 OS        1 <0>         0.0000
     32 H1          6.1721   -4.9880    0.0000 HC        1 <0>         0.0000
     33 H2          4.4637   -3.2715    0.0000 HC        1 <0>         0.0000
     34 H3          6.7179   -4.6849    0.0000 HC        1 <0>         0.0000
     35 H4          7.2534    2.1535    0.0000 HC        1 <0>         0.0000
     36 H5          7.2534    2.1535    0.0000 HC        1 <0>         0.0000
     37 H6          7.2534    2.1535    0.0000 HC        1 <0>         0.0000
     38 H7          8.5698   -2.8636    0.0000 HC        1 <0>         0.0000
     39 H8          8.5698   -2.8636    0.0000 HC        1 <0>         0.0000
     40 H9          8.5698   -2.8636    0.0000 HC        1 <0>         0.0000
     41 H10         4.0950   -3.4721    0.0000 HC        1 <0>         0.0000
     42 H11         4.0950   -3.4721    0.0000 HC        1 <0>         0.0000
     43 H12         4.0950   -3.4721    0.0000 HC        1 <0>         0.0000
     44 H13         6.2068   -2.2686    0.0000 HC        1 <0>         0.0000
     45 H14         6.2068   -2.2686    0.0000 HC        1 <0>         0.0000
     46 H15         6.2068   -2.2686    0.0000 HC        1 <0>         0.0000
     47 H16         7.5890    1.3998    0.0000 HC        1 <0>         0.0000
     48 H17         7.5890    1.3998    0.0000 HC        1 <0>         0.0000
     49 H18         7.1041    0.7322    0.0000 HC        1 <0>         0.0000
     50 H19         7.1041    0.7322    0.0000 HC        1 <0>         0.0000
     51 H20         7.4396   -0.0213    0.0000 HC        1 <0>         0.0000
     52 H21         7.4396   -0.0213    0.0000 HC        1 <0>         0.0000
     53 H22         6.9547   -0.6888    0.0000 HC        1 <0>         0.0000
     54 H23         6.9547   -0.6888    0.0000 HC        1 <0>         0.0000
     55 H24         4.9273   -5.5935    0.0000 HC        1 <0>         0.0000
     56 H25         4.9273   -5.5935    0.0000 HC        1 <0>         0.0000
     57 H26         5.6418   -5.1810    0.0000 HC        1 <0>         0.0000
     58 H27         5.6418   -5.1810    0.0000 HC        1 <0>         0.0000
     59 H28         2.7839   -4.3560    0.0000 HC        1 <0>         0.0000
     60 H29         2.7839   -4.3560    0.0000 HC        1 <0>         0.0000
     61 H30         4.9273   -3.1185    0.0000 HC        1 <0>         0.0000
     62 H31         4.9273   -3.1185    0.0000 HC        1 <0>         0.0000
     63 H32         7.1409   -4.1984    0.0000 HC        1 <0>         0.0000
     64 H33         7.1409   -4.1984    0.0000 HC        1 <0>         0.0000
     65 H34         3.4984   -3.9435    0.0000 HC        1 <0>         0.0000
     66 H35         3.4984   -3.9435    0.0000 HC        1 <0>         0.0000
     67 H36         5.6418   -2.7060    0.0000 HC        1 <0>         0.0000
     68 H37         5.6418   -2.7060    0.0000 HC        1 <0>         0.0000
     69 H38         7.6258   -3.5310    0.0000 HC        1 <0>         0.0000
     70 H39         7.6258   -3.5310    0.0000 HC        1 <0>         0.0000
     71 H40         3.4984   -5.5935    0.0000 HA        1 <0>         0.0000
@<TRIPOS>BOND
     1    1    5 1
     2    5    6 1
     3    6    7 1
     4    7    8 1
     5    9   10 1
     6   11   14 1
     7   12   15 1
     8   13   16 1
     9    2   18 1
    10    9   19 1
    11   17   19 2
    12   11   20 1
    13   17   20 1
    14   10   21 1
    15   12   22 1
    16   21   22 1
    17   13   23 1
    18   21   23 1
    19    8   24 1
    20    3   25 1
    21   14   25 1
    22   19   25 1
    23   22   25 1
    24    4   26 1
    25   15   26 1
    26   23   26 1
    27   16   27 1
    28   18   27 1
    29   26   27 1
    30   18   28 2
    31   20   29 2
    32   24   30 2
    33   24   31 1
    34   27   31 1
    35   21   32 1
    36   22   33 1
    37   23   34 1
    38    1   35 1
    39    1   36 1
    40    1   37 1
    41    2   38 1
    42    2   39 1
    43    2   40 1
    44    3   41 1
    45    3   42 1
    46    3   43 1
    47    4   44 1
    48    4   45 1
    49    4   46 1
    50    5   47 1
    51    5   48 1
    52    6   49 1
    53    6   50 1
    54    7   51 1
    55    7   52 1
    56    8   53 1
    57    8   54 1
    58    9   55 1
    59    9   56 1
    60   10   57 1
    61   10   58 1
    62   11   59 1
    63   11   60 1
    64   12   61 1
    65   12   62 1
    66   13   63 1
    67   13   64 1
    68   14   65 1
    69   14   66 1
    70   15   67 1
    71   15   68 1
    72   16   69 1
    73   16   70 1
    74   17   71 1
@<TRIPOS>MOLECULE
*****
  103   103     0     0     0
SMALL
NO_CHARGES

@<TRIPOS>ATOM
      1 C1         -6.4302    2.8875    0.0000 CT        1 <0>         0.0000
      2 C2         -5.7158    2.4750    0.0000 CT        1 <0>         0.0000
      3 C3         -5.0013    2.8875    0.0000 CT        1 <0>         0.0000
      4 C4         -4.2868    2.4750    0.0000 CT        1 <0>         0.0000
      5 C5         -3.5724    2.8875    0.0000 CT        1 <0>         0.0000
      6 C6         -2.8579    2.4750    0.0000 CT        1 <0>         0.0000
      7 C7         -2.1434    2.8875    0.0000 CT        1 <0>         0.0000
      8 C8         -1.4289    2.4750    0.0000 CT        1 <0>         0.0000
      9 C9         -0.7145    2.8875    0.0000 CT        1 <0>         0.0000
     10 C10         0.0000    2.4750    0.0000 CA        1 <0>         0.0000
     11 C11         0.7145    2.8875    0.0000 CA        1 <0>         0.0000
     12 C12         1.4289    2.4750    0.0000 CA        1 <0>         0.0000
     13 C13         1.4289    1.6500    0.0000 CA        1 <0>         0.0000
     14 C14         0.7145    1.2375    0.0000 CA        1 <0>         0.0000
     15 C15         0.0000    1.6500    0.0000 CA        1 <0>         0.0000
     16 O1          2.1434    1.2375    0.0000 OS        1 <0>         0.0000
     17 C16         2.8579    1.6500    0.0000 CT        1 <0>         0.0000
     18 C17         3.5724    1.2375    0.0000 CT        1 <0>         0.0000
     19 O2          4.2868    1.6500    0.0000 OS        1 <0>         0.0000
     20 C18         5.0013    1.2375    0.0000 CT        1 <0>         0.0000
     21 C19         5.7158    1.6500    0.0000 CT        1 <0>         0.0000
     22 O3          6.4302    1.2375    0.0000 OS        1 <0>         0.0000
     23 C20         7.1447    1.6500    0.0000 CT        1 <0>         0.0000
     24 C21         7.8592    1.2375    0.0000 CT        1 <0>         0.0000
     25 O4          8.5737    1.6500    0.0000 OS        1 <0>         0.0000
     26 C22         9.2881    1.2375    0.0000 CT        1 <0>         0.0000
     27 C23        10.0026    1.6500    0.0000 CT        1 <0>         0.0000
     28 O5         10.7171    1.2375    0.0000 OS        1 <0>         0.0000
     29 C24        11.4315    1.6500    0.0000 CT        1 <0>         0.0000
     30 C25        12.1460    1.2375    0.0000 CT        1 <0>         0.0000
     31 O6         12.8605    1.6500    0.0000 OS        1 <0>         0.0000
     32 C26        13.5749    1.2375    0.0000 CT        1 <0>         0.0000
     33 C27        14.2894    1.6500    0.0000 CT        1 <0>         0.0000
     34 O7         15.0039    1.2375    0.0000 OS        1 <0>         0.0000
     35 C28        15.7184    1.6500    0.0000 CT        1 <0>         0.0000
     36 C29        16.4328    1.2375    0.0000 CT        1 <0>         0.0000
     37 O8         17.1473    1.6500    0.0000 OS        1 <0>         0.0000
     38 C30        17.8618    1.2375    0.0000 CT        1 <0>         0.0000
     39 C31        18.5762    1.6500    0.0000 CT        1 <0>         0.0000
     40 O9         19.2907    1.2375    0.0000 OS        1 <0>         0.0000
     41 C32        20.0052    1.6500    0.0000 CT        1 <0>         0.0000
     42 C33        20.7197    1.2375    0.0000 CT        1 <0>         0.0000
     43 O10        21.4341    1.6500    0.0000 OH        1 <0>         0.0000
     44 H1         -6.4302    2.8875    0.0000 HC        1 <0>         0.0000
     45 H2         -6.4302    2.8875    0.0000 HC        1 <0>         0.0000
     46 H3         -6.4302    2.8875    0.0000 HC        1 <0>         0.0000
     47 H4         -5.7158    2.4750    0.0000 HC        1 <0>         0.0000
     48 H5         -5.7158    2.4750    0.0000 HC        1 <0>         0.0000
     49 H6         -5.0013    2.8875    0.0000 HC        1 <0>         0.0000
     50 H7         -5.0013    2.8875    0.0000 HC        1 <0>         0.0000
     51 H8         -4.2868    2.4750    0.0000 HC        1 <0>         0.0000
     52 H9         -4.2868    2.4750    0.0000 HC        1 <0>         0.0000
     53 H10        -3.5724    2.8875    0.0000 HC        1 <0>         0.0000
     54 H11        -3.5724    2.8875    0.0000 HC        1 <0>         0.0000
     55 H12        -2.8579    2.4750    0.0000 HC        1 <0>         0.0000
     56 H13        -2.8579    2.4750    0.0000 HC        1 <0>         0.0000
     57 H14        -2.1434    2.8875    0.0000 HC        1 <0>         0.0000
     58 H15        -2.1434    2.8875    0.0000 HC        1 <0>         0.0000
     59 H16        -1.4289    2.4750    0.0000 HC        1 <0>         0.0000
     60 H17        -1.4289    2.4750    0.0000 HC        1 <0>         0.0000
     61 H18        -0.7145    2.8875    0.0000 HC        1 <0>         0.0000
     62 H19        -0.7145    2.8875    0.0000 HC        1 <0>         0.0000
     63 H20         0.7145    2.8875    0.0000 HA        1 <0>         0.0000
     64 H21         1.4289    2.4750    0.0000 HA        1 <0>         0.0000
     65 H22         0.7145    1.2375    0.0000 HA        1 <0>         0.0000
     66 H23         0.0000    1.6500    0.0000 HA        1 <0>         0.0000
     67 H24         2.8579    1.6500    0.0000 H1        1 <0>         0.0000
     68 H25         2.8579    1.6500    0.0000 H1        1 <0>         0.0000
     69 H26         3.5724    1.2375    0.0000 H1        1 <0>         0.0000
     70 H27         3.5724    1.2375    0.0000 H1        1 <0>         0.0000
     71 H28         5.0013    1.2375    0.0000 H1        1 <0>         0.0000
     72 H29         5.0013    1.2375    0.0000 H1        1 <0>         0.0000
     73 H30         5.7158    1.6500    0.0000 H1        1 <0>         0.0000
     74 H31         5.7158    1.6500    0.0000 H1        1 <0>         0.0000
     75 H32         7.1447    1.6500    0.0000 H1        1 <0>         0.0000
     76 H33         7.1447    1.6500    0.0000 H1        1 <0>         0.0000
     77 H34         7.8592    1.2375    0.0000 H1        1 <0>         0.0000
     78 H35         7.8592    1.2375    0.0000 H1        1 <0>         0.0000
     79 H36         9.2881    1.2375    0.0000 H1        1 <0>         0.0000
     80 H37         9.2881    1.2375    0.0000 H1        1 <0>         0.0000
     81 H38        10.0026    1.6500    0.0000 H1        1 <0>         0.0000
     82 H39        10.0026    1.6500    0.0000 H1        1 <0>         0.0000
     83 H40        11.4315    1.6500    0.0000 H1        1 <0>         0.0000
     84 H41        11.4315    1.6500    0.0000 H1        1 <0>         0.0000
     85 H42        12.1460    1.2375    0.0000 H1        1 <0>         0.0000
     86 H43        12.1460    1.2375    0.0000 H1        1 <0>         0.0000
     87 H44        13.5749    1.2375    0.0000 H1        1 <0>         0.0000
     88 H45        13.5749    1.2375    0.0000 H1        1 <0>         0.0000
     89 H46        14.2894    1.6500    0.0000 H1        1 <0>         0.0000
     90 H47        14.2894    1.6500    0.0000 H1        1 <0>         0.0000
     91 H48        15.7184    1.6500    0.0000 H1        1 <0>         0.0000
     92 H49        15.7184    1.6500    0.0000 H1        1 <0>         0.0000
     93 H50        16.4328    1.2375    0.0000 H1        1 <0>         0.0000
     94 H51        16.4328    1.2375    0.0000 H1        1 <0>         0.0000
     95 H52        17.8618    1.2375    0.0000 H1        1 <0>         0.0000
     96 H53        17.8618    1.2375    0.0000 H1        1 <0>         0.0000
     97 H54        18.5762    1.6500    0.0000 H1        1 <0>         0.0000
     98 H55        18.5762    1.6500    0.0000 H1        1 <0>         0.0000
     99 H56        20.0052    1.6500    0.0000 H1        1 <0>         0.0000
    100 H57        20.0052    1.6500    0.0000 H1        1 <0>         0.0000
    101 H58        20.7197    1.2375    0.0000 H1        1 <0>         0.0000
    102 H59        20.7197    1.2375    0.0000 H1        1 <0>         0.0000
    103 H60        21.4341    1.6500    0.0000 HO        1 <0>         0.0000
@<TRIPOS>BOND
     1    1    2 1
     2    2    3 1
     3    3    4 1
     4    4    5 1
     5    5    6 1
     6    6    7 1
     7    7    8 1
     8    8    9 1
     9    9   10 1
    10   10   11 ar
    11   11   12 ar
    12   12   13 ar
    13   13   14 ar
    14   14   15 ar
    15   10   15 ar
    16   13   16 1
    17   16   17 1
    18   17   18 1
    19   18   19 1
    20   19   20 1
    21   20   21 1
    22   21   22 1
    23   22   23 1
    24   23   24 1
    25   24   25 1
    26   25   26 1
    27   26   27 1
    28   27   28 1
    29   28   29 1
    30   29   30 1
    31   30   31 1
    32   31   32 1
    33   32   33 1
    34   33   34 1
    35   34   35 1
    36   35   36 1
    37   36   37 1
    38   37   38 1
    39   38   39 1
    40   39   40 1
    41   40   41 1
    42   41   42 1
    43   42   43 1
    44    1   44 1
    45    1   45 1
    46    1   46 1
    47    2   47 1
    48    2   48 1
    49    3   49 1
    50    3   50 1
    51    4   51 1
    52    4   52 1
    53    5   53 1
    54    5   54 1
    55    6   55 1
    56    6   56 1
    57    7   57 1
    58    7   58 1
    59    8   59 1
    60    8   60 1
    61    9   61 1
    62    9   62 1
    63   11   63 1
    64   12   64 1
    65   14   65 1
    66   15   66 1
    67   17   67 1
    68   17   68 1
    69   18   69 1
    70   18   70 1
    71   20   71 1
    72   20   72 1
    73   21   73 1
    74   21   74 1
    75   23   75 1
    76   23   76 1
    77   24   77 1
    78   24   78 1
    79   26   79 1
    80   26   80 1
    81   27   81 1
    82   27   82 1
    83   29   83 1
    84   29   84 1
    85   30   85 1
    86   30   86 1
    87   32   87 1
    88   32   88 1
    89   33   89 1
    90   33   90 1
    91   35   91 1
    92   35   92 1
    93   36   93 1
    94   36   94 1
    95   38   95 1
    96   38   96 1
    97   39   97 1
    98   39   98 1
    99   41   99 1
   100   41  100 1
   101   42  101 1
   102   42  102 1
   103   43  103 1
@<TRIPOS>MOLECULE
*****
  152   159     0     0     0
SMALL
NO_CHARGES

@<TRIPOS>ATOM
      1 C1         21.9292  -17.6589    0.0000 CT        1 <0>         0.0000
      2 O1         21.2033  -17.2711    0.0000 OS        1 <0>         0.0000
      3 C2         20.5028  -17.7070    0.0000 CT        1 <0>         0.0000
      4 C3         20.4880  -18.5316    0.0000 CT        1 <0>         0.0000
      5 C4         21.2560  -18.9193    0.0000 CT        1 <0>         0.0000
      6 C5         21.9151  -18.4834    0.0000 CT        1 <0>         0.0000
      7 C6         23.2854  -15.1345    0.0000 CT        1 <0>         0.0000
      8 O2         22.5669  -14.7506    0.0000 OS        1 <0>         0.0000
      9 C7         21.8664  -15.1864    0.0000 CT        1 <0>         0.0000
     10 C8         21.8515  -16.0109    0.0000 CT        1 <0>         0.0000
     11 C9         22.6119  -16.3948    0.0000 CT        1 <0>         0.0000
     12 C10        23.2712  -15.9591    0.0000 CT        1 <0>         0.0000
     13 O3         22.6391  -17.2172    0.0000 OS        1 <0>         0.0000
     14 C11        24.6451  -12.6159    0.0000 CT        1 <0>         0.0000
     15 O4         23.9162  -12.2152    0.0000 OS        1 <0>         0.0000
     16 C12        23.2106  -12.6426    0.0000 CT        1 <0>         0.0000
     17 C13        23.1867  -13.4674    0.0000 CT        1 <0>         0.0000
     18 C14        23.9569  -13.8681    0.0000 CT        1 <0>         0.0000
     19 C15        24.6625  -13.4407    0.0000 CT        1 <0>         0.0000
     20 C16        18.1612  -11.8605    0.0000 CT        1 <0>         0.0000
     21 O5         17.4517  -11.4509    0.0000 OS        1 <0>         0.0000
     22 C17        16.7372  -11.8634    0.0000 CT        1 <0>         0.0000
     23 C18        16.7372  -12.6884    0.0000 CT        1 <0>         0.0000
     24 C19        17.4467  -13.0980    0.0000 CT        1 <0>         0.0000
     25 C20        18.1612  -12.6855    0.0000 CT        1 <0>         0.0000
     26 C21        18.1711   -9.3798    0.0000 CT        1 <0>         0.0000
     27 C22        18.1711  -10.2048    0.0000 CT        1 <0>         0.0000
     28 C23        18.8855  -10.6173    0.0000 CT        1 <0>         0.0000
     29 C24        19.6000  -10.2048    0.0000 CT        1 <0>         0.0000
     30 C25        19.6000   -9.3798    0.0000 CT        1 <0>         0.0000
     31 O6         18.8855   -8.9673    0.0000 OS        1 <0>         0.0000
     32 C26        21.0289  -10.2048    0.0000 CA        1 <0>         0.0000
     33 C27        21.0289   -9.3798    0.0000 CA        1 <0>         0.0000
     34 O7         20.3145   -8.9673    0.0000 OS        1 <0>         0.0000
     35 C28        21.7435  -10.6173    0.0000 CA        1 <0>         0.0000
     36 C29        22.4579  -10.2048    0.0000 CB        1 <0>         0.0000
     37 C30        22.4579   -9.3798    0.0000 CB        1 <0>         0.0000
     38 C31        21.7435   -8.9673    0.0000 CA        1 <0>         0.0000
     39 C32        23.1724  -10.6173    0.0000 CA        1 <0>         0.0000
     40 C33        23.8869  -10.2048    0.0000 CA        1 <0>         0.0000
     41 C34        23.8869   -9.3798    0.0000 CA        1 <0>         0.0000
     42 C35        23.1724   -8.9673    0.0000 CA        1 <0>         0.0000
     43 C36        24.6013  -10.6173    0.0000 C         1 <0>         0.0000
     44 C37        25.3158  -10.2048    0.0000 CT        1 <0>         0.0000
     45 C38        25.3158   -9.3798    0.0000 CT        1 <0>         0.0000
     46 C39        24.6013   -8.9673    0.0000 CT        1 <0>         0.0000
     47 C40        17.4566   -8.9673    0.0000 CT        1 <0>         0.0000
     48 O8         18.8855  -11.4422    0.0000 OS        1 <0>         0.0000
     49 O9         17.4566  -10.6173    0.0000 OH        1 <0>         0.0000
     50 O10        26.7447  -10.2048    0.0000 O         1 <0>         0.0000
     51 C41        26.7447   -9.3798    0.0000 C         1 <0>         0.0000
     52 C42        26.0303   -8.9673    0.0000 CT        1 <0>         0.0000
     53 O11        28.1738  -10.2048    0.0000 OH        1 <0>         0.0000
     54 C43        28.1738   -9.3798    0.0000 CT        1 <0>         0.0000
     55 C44        27.4592   -8.9673    0.0000 CT        1 <0>         0.0000
     56 O12        25.3571  -12.1848    0.0000 OS        1 <0>         0.0000
     57 O13        26.0303   -8.1425    0.0000 OS        1 <0>         0.0000
     58 O14        24.6013  -11.4423    0.0000 O         1 <0>         0.0000
     59 O15        23.1724  -11.4423    0.0000 OH        1 <0>         0.0000
     60 O16        21.7435  -11.4421    0.0000 OH        1 <0>         0.0000
     61 O17        27.4592   -8.1423    0.0000 OH        1 <0>         0.0000
     62 C45        28.8730   -8.9759    0.0000 CT        1 <0>         0.0000
     63 C46        25.3305   -7.7384    0.0000 CT        1 <0>         0.0000
     64 C47        22.4908  -12.2232    0.0000 CT        1 <0>         0.0000
     65 O18        23.9840  -14.7002    0.0000 OS        1 <0>         0.0000
     66 O19        17.4466  -13.9171    0.0000 OH        1 <0>         0.0000
     67 C48        16.0116  -11.4445    0.0000 CT        1 <0>         0.0000
     68 O20        16.0191  -13.1031    0.0000 OH        1 <0>         0.0000
     69 O21        22.4896  -13.8770    0.0000 OH        1 <0>         0.0000
     70 C49        21.1562  -14.8069    0.0000 CT        1 <0>         0.0000
     71 C50        19.7926  -17.3275    0.0000 CT        1 <0>         0.0000
     72 C51        20.6726  -19.6264    0.0000 CT        1 <0>         0.0000
     73 O22        21.8394  -19.6264    0.0000 OH        1 <0>         0.0000
     74 O23        19.8214  -18.9725    0.0000 OH        1 <0>         0.0000
     75 O24        21.1812  -16.4539    0.0000 OH        1 <0>         0.0000
     76 C52        20.3058  -10.6224    0.0000 CT        1 <0>         0.0000
     77 H1         21.9292  -17.6589    0.0000 H2        1 <0>         0.0000
     78 H2         20.5028  -17.7070    0.0000 H1        1 <0>         0.0000
     79 H3         20.4880  -18.5316    0.0000 H1        1 <0>         0.0000
     80 H4         21.9151  -18.4834    0.0000 HC        1 <0>         0.0000
     81 H5         21.9151  -18.4834    0.0000 HC        1 <0>         0.0000
     82 H6         23.2854  -15.1345    0.0000 H2        1 <0>         0.0000
     83 H7         21.8664  -15.1864    0.0000 H1        1 <0>         0.0000
     84 H8         21.8515  -16.0109    0.0000 H1        1 <0>         0.0000
     85 H9         22.6119  -16.3948    0.0000 H1        1 <0>         0.0000
     86 H10        23.2712  -15.9591    0.0000 HC        1 <0>         0.0000
     87 H11        23.2712  -15.9591    0.0000 HC        1 <0>         0.0000
     88 H12        24.6451  -12.6159    0.0000 H2        1 <0>         0.0000
     89 H13        23.2106  -12.6426    0.0000 H1        1 <0>         0.0000
     90 H14        23.1867  -13.4674    0.0000 H1        1 <0>         0.0000
     91 H15        23.9569  -13.8681    0.0000 H1        1 <0>         0.0000
     92 H16        24.6625  -13.4407    0.0000 HC        1 <0>         0.0000
     93 H17        24.6625  -13.4407    0.0000 HC        1 <0>         0.0000
     94 H18        18.1612  -11.8605    0.0000 H2        1 <0>         0.0000
     95 H19        16.7372  -11.8634    0.0000 H1        1 <0>         0.0000
     96 H20        16.7372  -12.6884    0.0000 H1        1 <0>         0.0000
     97 H21        17.4467  -13.0980    0.0000 H1        1 <0>         0.0000
     98 H22        18.1612  -12.6855    0.0000 HC        1 <0>         0.0000
     99 H23        18.1612  -12.6855    0.0000 HC        1 <0>         0.0000
    100 H24        18.1711   -9.3798    0.0000 H1        1 <0>         0.0000
    101 H25        18.1711  -10.2048    0.0000 H1        1 <0>         0.0000
    102 H26        18.8855  -10.6173    0.0000 H1        1 <0>         0.0000
    103 H27        19.6000  -10.2048    0.0000 HC        1 <0>         0.0000
    104 H28        19.6000  -10.2048    0.0000 HC        1 <0>         0.0000
    105 H29        19.6000   -9.3798    0.0000 H2        1 <0>         0.0000
    106 H30        21.7435   -8.9673    0.0000 HA        1 <0>         0.0000
    107 H31        23.1724   -8.9673    0.0000 HA        1 <0>         0.0000
    108 H32        25.3158  -10.2048    0.0000 H1        1 <0>         0.0000
    109 H33        25.3158   -9.3798    0.0000 HC        1 <0>         0.0000
    110 H34        24.6013   -8.9673    0.0000 HC        1 <0>         0.0000
    111 H35        24.6013   -8.9673    0.0000 HC        1 <0>         0.0000
    112 H36        17.4566   -8.9673    0.0000 HC        1 <0>         0.0000
    113 H37        17.4566   -8.9673    0.0000 HC        1 <0>         0.0000
    114 H38        17.4566   -8.9673    0.0000 HC        1 <0>         0.0000
    115 H39        17.4566  -10.6173    0.0000 HO        1 <0>         0.0000
    116 H40        26.0303   -8.9673    0.0000 H1        1 <0>         0.0000
    117 H41        28.1738  -10.2048    0.0000 HO        1 <0>         0.0000
    118 H42        28.1738   -9.3798    0.0000 H1        1 <0>         0.0000
    119 H43        27.4592   -8.9673    0.0000 H1        1 <0>         0.0000
    120 H44        23.1724  -11.4423    0.0000 HO        1 <0>         0.0000
    121 H45        21.7435  -11.4421    0.0000 HO        1 <0>         0.0000
    122 H46        27.4592   -8.1423    0.0000 HO        1 <0>         0.0000
    123 H47        28.8730   -8.9759    0.0000 HC        1 <0>         0.0000
    124 H48        28.8730   -8.9759    0.0000 HC        1 <0>         0.0000
    125 H49        28.8730   -8.9759    0.0000 HC        1 <0>         0.0000
    126 H50        25.3305   -7.7384    0.0000 H1        1 <0>         0.0000
    127 H51        25.3305   -7.7384    0.0000 H1        1 <0>         0.0000
    128 H52        25.3305   -7.7384    0.0000 H1        1 <0>         0.0000
    129 H53        22.4908  -12.2232    0.0000 HC        1 <0>         0.0000
    130 H54        22.4908  -12.2232    0.0000 HC        1 <0>         0.0000
    131 H55        22.4908  -12.2232    0.0000 HC        1 <0>         0.0000
    132 H56        17.4466  -13.9171    0.0000 HO        1 <0>         0.0000
    133 H57        16.0116  -11.4445    0.0000 HC        1 <0>         0.0000
    134 H58        16.0116  -11.4445    0.0000 HC        1 <0>         0.0000
    135 H59        16.0116  -11.4445    0.0000 HC        1 <0>         0.0000
    136 H60        16.0191  -13.1031    0.0000 HO        1 <0>         0.0000
    137 H61        22.4896  -13.8770    0.0000 HO        1 <0>         0.0000
    138 H62        21.1562  -14.8069    0.0000 HC        1 <0>         0.0000
    139 H63        21.1562  -14.8069    0.0000 HC        1 <0>         0.0000
    140 H64        21.1562  -14.8069    0.0000 HC        1 <0>         0.0000
    141 H65        19.7926  -17.3275    0.0000 HC        1 <0>         0.0000
    142 H66        19.7926  -17.3275    0.0000 HC        1 <0>         0.0000
    143 H67        19.7926  -17.3275    0.0000 HC        1 <0>         0.0000
    144 H68        20.6726  -19.6264    0.0000 HC        1 <0>         0.0000
    145 H69        20.6726  -19.6264    0.0000 HC        1 <0>         0.0000
    146 H70        20.6726  -19.6264    0.0000 HC        1 <0>         0.0000
    147 H71        21.8394  -19.6264    0.0000 HO        1 <0>         0.0000
    148 H72        19.8214  -18.9725    0.0000 HO        1 <0>         0.0000
    149 H73        21.1812  -16.4539    0.0000 HO        1 <0>         0.0000
    150 H74        20.3058  -10.6224    0.0000 HC        1 <0>         0.0000
    151 H75        20.3058  -10.6224    0.0000 HC        1 <0>         0.0000
    152 H76        20.3058  -10.6224    0.0000 HC        1 <0>         0.0000
@<TRIPOS>BOND
     1    1    2 1
     2    2    3 1
     3    3    4 1
     4    4    5 1
     5    5    6 1
     6    1    6 1
     7    7    8 1
     8    8    9 1
     9    9   10 1
    10   10   11 1
    11   11   12 1
    12    7   12 1
    13   11   13 1
    14   14   15 1
    15   15   16 1
    16   16   17 1
    17   17   18 1
    18   18   19 1
    19   14   19 1
    20   20   21 1
    21   21   22 1
    22   22   23 1
    23   23   24 1
    24   24   25 1
    25   20   25 1
    26   26   27 1
    27   27   28 1
    28   28   29 1
    29   29   30 1
    30   30   31 1
    31   26   31 1
    32   32   33 ar
    33   33   34 1
    34   32   35 ar
    35   35   36 ar
    36   36   37 ar
    37   37   38 ar
    38   33   38 ar
    39   36   39 ar
    40   39   40 ar
    41   40   41 ar
    42   41   42 ar
    43   37   42 ar
    44   40   43 1
    45   43   44 1
    46   44   45 1
    47   45   46 1
    48   41   46 1
    49   30   34 1
    50   26   47 1
    51   28   48 1
    52   27   49 1
    53   50   51 2
    54   51   52 1
    55   45   52 1
    56   54   55 1
    57   51   55 1
    58   44   56 1
    59   52   57 1
    60   43   58 2
    61   39   59 1
    62   35   60 1
    63   53   54 1
    64   55   61 1
    65   54   62 1
    66   57   63 1
    67   20   48 1
    68   14   56 1
    69   16   64 1
    70   18   65 1
    71   24   66 1
    72   22   67 1
    73   23   68 1
    74   17   69 1
    75    7   65 1
    76    1   13 1
    77    9   70 1
    78    3   71 1
    79    5   72 1
    80    5   73 1
    81    4   74 1
    82   10   75 1
    83   32   76 1
    84    1   77 1
    85    3   78 1
    86    4   79 1
    87    6   80 1
    88    6   81 1
    89    7   82 1
    90    9   83 1
    91   10   84 1
    92   11   85 1
    93   12   86 1
    94   12   87 1
    95   14   88 1
    96   16   89 1
    97   17   90 1
    98   18   91 1
    99   19   92 1
   100   19   93 1
   101   20   94 1
   102   22   95 1
   103   23   96 1
   104   24   97 1
   105   25   98 1
   106   25   99 1
   107   26  100 1
   108   27  101 1
   109   28  102 1
   110   29  103 1
   111   29  104 1
   112   30  105 1
   113   38  106 1
   114   42  107 1
   115   44  108 1
   116   45  109 1
   117   46  110 1
   118   46  111 1
   119   47  112 1
   120   47  113 1
   121   47  114 1
   122   49  115 1
   123   52  116 1
   124   53  117 1
   125   54  118 1
   126   55  119 1
   127   59  120 1
   128   60  121 1
   129   61  122 1
   130   62  123 1
   131   62  124 1
   132   62  125 1
   133   63  126 1
   134   63  127 1
   135   63  128 1
   136   64  129 1
   137   64  130 1
   138   64  131 1
   139   66  132 1
   140   67  133 1
   141   67  134 1
   142   67  135 1
   143   68  136 1
   144   69  137 1
   145   70  138 1
   146   70  139 1
   147   70  140 1
   148   71  141 1
   149   71  142 1
   150   71  143 1
   151   72  144 1
   152   72  145 1
   153   72  146 1
   154   73  147 1
   155   74  148 1
   156   75  149 1
   157   76  150 1
   158   76  151 1
   159   76  152 1
@<TRIPOS>MOLECULE
*****
  102   101     0     0     0
SMALL
NO_CHARGES

@<TRIPOS>ATOM
      1 C1        -15.0414    7.8592    0.0000 CT        1 <0>         0.0000
      2 C2        -14.3270    8.2717    0.0000 CT        1 <0>         0.0000
      3 C3        -13.6125    7.8592    0.0000 CT        1 <0>         0.0000
      4 C4        -12.8980    8.2717    0.0000 CT        1 <0>         0.0000
      5 C5        -12.1836    7.8592    0.0000 CT        1 <0>         0.0000
      6 C6        -11.4691    8.2717    0.0000 CT        1 <0>         0.0000
      7 C7        -10.7546    7.8592    0.0000 CT        1 <0>         0.0000
      8 C8        -10.0401    8.2717    0.0000 CT        1 <0>         0.0000
      9 C9         -9.3257    7.8592    0.0000 CT        1 <0>         0.0000
     10 C10        -8.6112    8.2717    0.0000 CT        1 <0>         0.0000
     11 C11        -7.8967    7.8592    0.0000 CT        1 <0>         0.0000
     12 C12        12.1085    7.8592    0.0000 CT        1 <0>         0.0000
     13 C13        -7.1823    8.2717    0.0000 CT        1 <0>         0.0000
     14 C14        11.3940    8.2717    0.0000 CT        1 <0>         0.0000
     15 C15        -5.7533    8.2717    0.0000 CT        1 <0>         0.0000
     16 C16         9.9650    8.2717    0.0000 CT        1 <0>         0.0000
     17 C17        -5.0388    7.8592    0.0000 CT        1 <0>         0.0000
     18 C18         9.2506    7.8592    0.0000 CT        1 <0>         0.0000
     19 C19        -3.6099    7.8592    0.0000 CT        1 <0>         0.0000
     20 C20         7.8216    7.8592    0.0000 CT        1 <0>         0.0000
     21 C21        -2.8954    8.2717    0.0000 CT        1 <0>         0.0000
     22 C22         7.1072    8.2717    0.0000 CT        1 <0>         0.0000
     23 C23        -1.4665    8.2717    0.0000 CT        1 <0>         0.0000
     24 C24         5.6782    8.2717    0.0000 CT        1 <0>         0.0000
     25 C25        -0.7520    7.8592    0.0000 CT        1 <0>         0.0000
     26 C26         4.9637    7.8592    0.0000 CT        1 <0>         0.0000
     27 C27         0.6769    7.8592    0.0000 CT        1 <0>         0.0000
     28 C28         3.5348    7.8592    0.0000 CT        1 <0>         0.0000
     29 C29         1.3914    8.2717    0.0000 CT        1 <0>         0.0000
     30 C30         2.8203    8.2717    0.0000 CT        1 <0>         0.0000
     31 O1         12.8229    8.2717    0.0000 OH        1 <0>         0.0000
     32 O2         -6.4678    7.8592    0.0000 OS        1 <0>         0.0000
     33 O3         10.6795    7.8592    0.0000 OS        1 <0>         0.0000
     34 O4         -4.3244    8.2717    0.0000 OS        1 <0>         0.0000
     35 O5          8.5361    8.2717    0.0000 OS        1 <0>         0.0000
     36 O6         -2.1810    7.8592    0.0000 OS        1 <0>         0.0000
     37 O7          6.3927    7.8592    0.0000 OS        1 <0>         0.0000
     38 O8         -0.0376    8.2717    0.0000 OS        1 <0>         0.0000
     39 O9          4.2493    8.2717    0.0000 OS        1 <0>         0.0000
     40 O10         2.1059    7.8592    0.0000 OS        1 <0>         0.0000
     41 H1        -15.0414    7.8592    0.0000 HC        1 <0>         0.0000
     42 H2        -15.0414    7.8592    0.0000 HC        1 <0>         0.0000
     43 H3        -15.0414    7.8592    0.0000 HC        1 <0>         0.0000
     44 H4        -14.3270    8.2717    0.0000 HC        1 <0>         0.0000
     45 H5        -14.3270    8.2717    0.0000 HC        1 <0>         0.0000
     46 H6        -13.6125    7.8592    0.0000 HC        1 <0>         0.0000
     47 H7        -13.6125    7.8592    0.0000 HC        1 <0>         0.0000
     48 H8        -12.8980    8.2717    0.0000 HC        1 <0>         0.0000
     49 H9        -12.8980    8.2717    0.0000 HC        1 <0>         0.0000
     50 H10       -12.1836    7.8592    0.0000 HC        1 <0>         0.0000
     51 H11       -12.1836    7.8592    0.0000 HC        1 <0>         0.0000
     52 H12       -11.4691    8.2717    0.0000 HC        1 <0>         0.0000
     53 H13       -11.4691    8.2717    0.0000 HC        1 <0>         0.0000
     54 H14       -10.7546    7.8592    0.0000 HC        1 <0>         0.0000
     55 H15       -10.7546    7.8592    0.0000 HC        1 <0>         0.0000
     56 H16       -10.0401    8.2717    0.0000 HC        1 <0>         0.0000
     57 H17       -10.0401    8.2717    0.0000 HC        1 <0>         0.0000
     58 H18        -9.3257    7.8592    0.0000 HC        1 <0>         0.0000
     59 H19        -9.3257    7.8592    0.0000 HC        1 <0>         0.0000
     60 H20        -8.6112    8.2717    0.0000 HC        1 <0>         0.0000
     61 H21        -8.6112    8.2717    0.0000 HC        1 <0>         0.0000
     62 H22        -7.8967    7.8592    0.0000 HC        1 <0>         0.0000
     63 H23        -7.8967    7.8592    0.0000 HC        1 <0>         0.0000
     64 H24        12.1085    7.8592    0.0000 H1        1 <0>         0.0000
     65 H25        12.1085    7.8592    0.0000 H1        1 <0>         0.0000
     66 H26        -7.1823    8.2717    0.0000 H1        1 <0>         0.0000
     67 H27        -7.1823    8.2717    0.0000 H1        1 <0>         0.0000
     68 H28        11.3940    8.2717    0.0000 H1        1 <0>         0.0000
     69 H29        11.3940    8.2717    0.0000 H1        1 <0>         0.0000
     70 H30        -5.7533    8.2717    0.0000 H1        1 <0>         0.0000
     71 H31        -5.7533    8.2717    0.0000 H1        1 <0>         0.0000
     72 H32         9.9650    8.2717    0.0000 H1        1 <0>         0.0000
     73 H33         9.9650    8.2717    0.0000 H1        1 <0>         0.0000
     74 H34        -5.0388    7.8592    0.0000 H1        1 <0>         0.0000
     75 H35        -5.0388    7.8592    0.0000 H1        1 <0>         0.0000
     76 H36         9.2506    7.8592    0.0000 H1        1 <0>         0.0000
     77 H37         9.2506    7.8592    0.0000 H1        1 <0>         0.0000
     78 H38        -3.6099    7.8592    0.0000 H1        1 <0>         0.0000
     79 H39        -3.6099    7.8592    0.0000 H1        1 <0>         0.0000
     80 H40         7.8216    7.8592    0.0000 H1        1 <0>         0.0000
     81 H41         7.8216    7.8592    0.0000 H1        1 <0>         0.0000
     82 H42        -2.8954    8.2717    0.0000 H1        1 <0>         0.0000
     83 H43        -2.8954    8.2717    0.0000 H1        1 <0>         0.0000
     84 H44         7.1072    8.2717    0.0000 H1        1 <0>         0.0000
     85 H45         7.1072    8.2717    0.0000 H1        1 <0>         0.0000
     86 H46        -1.4665    8.2717    0.0000 H1        1 <0>         0.0000
     87 H47        -1.4665    8.2717    0.0000 H1        1 <0>         0.0000
     88 H48         5.6782    8.2717    0.0000 H1        1 <0>         0.0000
     89 H49         5.6782    8.2717    0.0000 H1        1 <0>         0.0000
     90 H50        -0.7520    7.8592    0.0000 H1        1 <0>         0.0000
     91 H51        -0.7520    7.8592    0.0000 H1        1 <0>         0.0000
     92 H52         4.9637    7.8592    0.0000 H1        1 <0>         0.0000
     93 H53         4.9637    7.8592    0.0000 H1        1 <0>         0.0000
     94 H54         0.6769    7.8592    0.0000 H1        1 <0>         0.0000
     95 H55         0.6769    7.8592    0.0000 H1        1 <0>         0.0000
     96 H56         3.5348    7.8592    0.0000 H1        1 <0>         0.0000
     97 H57         3.5348    7.8592    0.0000 H1        1 <0>         0.0000
     98 H58         1.3914    8.2717    0.0000 H1        1 <0>         0.0000
     99 H59         1.3914    8.2717    0.0000 H1        1 <0>         0.0000
    100 H60         2.8203    8.2717    0.0000 H1        1 <0>         0.0000
    101 H61         2.8203    8.2717    0.0000 H1        1 <0>         0.0000
    102 H62        12.8229    8.2717    0.0000 HO        1 <0>         0.0000
@<TRIPOS>BOND
     1    1    2 1
     2    2    3 1
     3    3    4 1
     4    4    5 1
     5    5    6 1
     6    6    7 1
     7    7    8 1
     8    8    9 1
     9    9   10 1
    10   10   11 1
    11   11   13 1
    12   12   14 1
    13   15   17 1
    14   16   18 1
    15   19   21 1
    16   20   22 1
    17   23   25 1
    18   24   26 1
    19   27   29 1
    20   28   30 1
    21   12   31 1
    22   13   32 1
    23   15   32 1
    24   14   33 1
    25   16   33 1
    26   17   34 1
    27   19   34 1
    28   18   35 1
    29   20   35 1
    30   21   36 1
    31   23   36 1
    32   22   37 1
    33   24   37 1
    34   25   38 1
    35   27   38 1
    36   26   39 1
    37   28   39 1
    38   29   40 1
    39   30   40 1
    40    1   41 1
    41    1   42 1
    42    1   43 1
    43    2   44 1
    44    2   45 1
    45    3   46 1
    46    3   47 1
    47    4   48 1
    48    4   49 1
    49    5   50 1
    50    5   51 1
    51    6   52 1
    52    6   53 1
    53    7   54 1
    54    7   55 1
    55    8   56 1
    56    8   57 1
    57    9   58 1
    58    9   59 1
    59   10   60 1
    60   10   61 1
    61   11   62 1
    62   11   63 1
    63   12   64 1
    64   12   65 1
    65   13   66 1
    66   13   67 1
    67   14   68 1
    68   14   69 1
    69   15   70 1
    70   15   71 1
    71   16   72 1
    72   16   73 1
    73   17   74 1
    74   17   75 1
    75   18   76 1
    76   18   77 1
    77   19   78 1
    78   19   79 1
    79   20   80 1
    80   20   81 1
    81   21   82 1
    82   21   83 1
    83   22   84 1
    84   22   85 1
    85   23   86 1
    86   23   87 1
    87   24   88 1
    88   24   89 1
    89   25   90 1
    90   25   91 1
    91   26   92 1
    92   26   93 1
    93   27   94 1
    94   27   95 1
    95   28   96 1
    96   28   97 1
    97   29   98 1
    98   29   99 1
    99   30  100 1
   100   30  101 1
   101   31  102 1
@<TRIPOS>MOLECULE
*****
   65    65     0     0     0
SMALL
NO_CHARGES

@<TRIPOS>ATOM
      1 C1         -0.6162   -5.1022    0.0000 CT        1 <0>         0.0000
      2 C2         -1.2107   -5.6741    0.0000 CT        1 <0>         0.0000
      3 C3         -1.0125   -6.4751    0.0000 CT        1 <0>         0.0000
      4 C4         -0.2199   -6.7039    0.0000 CT        1 <0>         0.0000
      5 C5          0.3745   -6.1319    0.0000 CT        1 <0>         0.0000
      6 C6          1.1671   -6.3606    0.0000 CT        1 <0>         0.0000
      7 C7          1.7616   -5.7886    0.0000 CT        1 <0>         0.0000
      8 C8          2.5541   -6.0174    0.0000 C         1 <0>         0.0000
      9 O1          2.7524   -6.8183    0.0000 O         1 <0>         0.0000
     10 C9          3.1486   -5.4454    0.0000 CT        1 <0>         0.0000
     11 C10         3.9412   -5.6741    0.0000 CT        1 <0>         0.0000
     12 C11         4.5358   -5.1022    0.0000 CT        1 <0>         0.0000
     13 C12         4.4225   -4.2850    0.0000 CT        1 <0>         0.0000
     14 O2          3.6947   -3.8964    0.0000 OH        1 <0>         0.0000
     15 C13         5.1646   -3.9247    0.0000 CT        1 <0>         0.0000
     16 C14         5.7366   -4.5192    0.0000 CT        1 <0>         0.0000
     17 O3          6.5538   -4.4058    0.0000 OH        1 <0>         0.0000
     18 C15         5.3480   -5.2469    0.0000 CT        1 <0>         0.0000
     19 C16         5.7083   -5.9890    0.0000 CT        1 <0>         0.0000
     20 C17         5.2458   -6.6722    0.0000 CM        1 <0>         0.0000
     21 C18         5.6061   -7.4143    0.0000 CM        1 <0>         0.0000
     22 C19         6.4290   -7.4733    0.0000 CT        1 <0>         0.0000
     23 C20         6.7894   -8.2155    0.0000 CT        1 <0>         0.0000
     24 C21         7.6123   -8.2745    0.0000 CT        1 <0>         0.0000
     25 C22         7.9726   -9.0167    0.0000 C         1 <0>         0.0000
     26 O4          7.5100   -9.6998    0.0000 O         1 <0>         0.0000
     27 O5          8.7955   -9.0757    0.0000 OH        1 <0>         0.0000
     28 H1         -0.6162   -5.1022    0.0000 HC        1 <0>         0.0000
     29 H2         -0.6162   -5.1022    0.0000 HC        1 <0>         0.0000
     30 H3         -0.6162   -5.1022    0.0000 HC        1 <0>         0.0000
     31 H4         -1.2107   -5.6741    0.0000 HC        1 <0>         0.0000
     32 H5         -1.2107   -5.6741    0.0000 HC        1 <0>         0.0000
     33 H6         -1.0125   -6.4751    0.0000 HC        1 <0>         0.0000
     34 H7         -1.0125   -6.4751    0.0000 HC        1 <0>         0.0000
     35 H8         -0.2199   -6.7039    0.0000 HC        1 <0>         0.0000
     36 H9         -0.2199   -6.7039    0.0000 HC        1 <0>         0.0000
     37 H10         0.3745   -6.1319    0.0000 HC        1 <0>         0.0000
     38 H11         0.3745   -6.1319    0.0000 HC        1 <0>         0.0000
     39 H12         1.1671   -6.3606    0.0000 HC        1 <0>         0.0000
     40 H13         1.1671   -6.3606    0.0000 HC        1 <0>         0.0000
     41 H14         1.7616   -5.7886    0.0000 HC        1 <0>         0.0000
     42 H15         1.7616   -5.7886    0.0000 HC        1 <0>         0.0000
     43 H16         3.1486   -5.4454    0.0000 HC        1 <0>         0.0000
     44 H17         3.1486   -5.4454    0.0000 HC        1 <0>         0.0000
     45 H18         3.9412   -5.6741    0.0000 HC        1 <0>         0.0000
     46 H19         3.9412   -5.6741    0.0000 HC        1 <0>         0.0000
     47 H20         4.5358   -5.1022    0.0000 HC        1 <0>         0.0000
     48 H21         4.4225   -4.2850    0.0000 H1        1 <0>         0.0000
     49 H22         3.6947   -3.8964    0.0000 HO        1 <0>         0.0000
     50 H23         5.1646   -3.9247    0.0000 HC        1 <0>         0.0000
     51 H24         5.1646   -3.9247    0.0000 HC        1 <0>         0.0000
     52 H25         5.7366   -4.5192    0.0000 H1        1 <0>         0.0000
     53 H26         6.5538   -4.4058    0.0000 HO        1 <0>         0.0000
     54 H27         5.3480   -5.2469    0.0000 HC        1 <0>         0.0000
     55 H28         5.7083   -5.9890    0.0000 HC        1 <0>         0.0000
     56 H29         5.7083   -5.9890    0.0000 HC        1 <0>         0.0000
     57 H30         5.2458   -6.6722    0.0000 HA        1 <0>         0.0000
     58 H31         5.6061   -7.4143    0.0000 HA        1 <0>         0.0000
     59 H32         6.4290   -7.4733    0.0000 HC        1 <0>         0.0000
     60 H33         6.4290   -7.4733    0.0000 HC        1 <0>         0.0000
     61 H34         6.7894   -8.2155    0.0000 HC        1 <0>         0.0000
     62 H35         6.7894   -8.2155    0.0000 HC        1 <0>         0.0000
     63 H36         7.6123   -8.2745    0.0000 HC        1 <0>         0.0000
     64 H37         7.6123   -8.2745    0.0000 HC        1 <0>         0.0000
     65 H38         8.7955   -9.0757    0.0000 HO        1 <0>         0.0000
@<TRIPOS>BOND
     1    1    2 1
     2    2    3 1
     3    3    4 1
     4    4    5 1
     5    5    6 1
     6    6    7 1
     7    7    8 1
     8    8    9 2
     9    8   10 1
    10   10   11 1
    11   11   12 1
    12   12   13 1
    13   13   14 1
    14   13   15 1
    15   15   16 1
    16   16   17 1
    17   16   18 1
    18   12   18 1
    19   18   19 1
    20   19   20 1
    21   20   21 2
    22   21   22 1
    23   22   23 1
    24   23   24 1
    25   24   25 1
    26   25   26 2
    27   25   27 1
    28    1   28 1
    29    1   29 1
    30    1   30 1
    31    2   31 1
    32    2   32 1
    33    3   33 1
    34    3   34 1
    35    4   35 1
    36    4   36 1
    37    5   37 1
    38    5   38 1
    39    6   39 1
    40    6   40 1
    41    7   41 1
    42    7   42 1
    43   10   43 1
    44   10   44 1
    45   11   45 1
    46   11   46 1
    47   12   47 1
    48   13   48 1
    49   14   49 1
    50   15   50 1
    51   15   51 1
    52   16   52 1
    53   17   53 1
    54   18   54 1
    55   19   55 1
    56   19   56 1
    57   20   57 1
    58   21   58 1
    59   22   59 1
    60   22   60 1
    61   23   61 1
    62   23   62 1
    63   24   63 1
    64   24   64 1
    65   27   65 1
@<TRIPOS>MOLECULE
164
   29    29     0     0     0
SMALL
NO_CHARGES

@<TRIPOS>ATOM
      1 O1         -2.4034    0.4108    0.0000 O         1 <0>         0.0000
      2 C1         -1.6889   -0.0017    0.0000 C         1 <0>         0.0000
      3 O2         -1.6889   -0.8267    0.0000 OH        1 <0>         0.0000
      4 C2         -0.9744    0.4108    0.0000 CT        1 <0>         0.0000
      5 C3         -0.9744    1.2358    0.0000 CT        1 <0>         0.0000
      6 C4         -0.2600    1.6483    0.0000 CM        1 <0>         0.0000
      7 C5          0.4545    1.2358    0.0000 CM        1 <0>         0.0000
      8 C6          0.4545    0.4108    0.0000 CM        1 <0>         0.0000
      9 O3         -1.6889    1.6483    0.0000 OH        1 <0>         0.0000
     10 C7         -0.2600   -0.0017    0.0000 CM        1 <0>         0.0000
     11 C8         -0.2600   -0.8267    0.0000 C         1 <0>         0.0000
     12 O4         -0.9744   -1.2392    0.0000 O         1 <0>         0.0000
     13 C9          0.4545   -1.2392    0.0000 CT        1 <0>         0.0000
     14 C10         1.1690   -0.8267    0.0000 CT        1 <0>         0.0000
     15 C11         1.8835   -1.2392    0.0000 C         1 <0>         0.0000
     16 O5          2.5979   -0.8267    0.0000 OH        1 <0>         0.0000
     17 O6          1.8835   -2.0642    0.0000 O         1 <0>         0.0000
     18 H1         -1.5495    0.5122    0.0000 HC        1 <0>         0.0000
     19 H2         -1.5495    1.1344    0.0000 H1        1 <0>         0.0000
     20 H3         -1.6889   -0.8267    0.0000 HO        1 <0>         0.0000
     21 H4         -0.2600    1.6483    0.0000 HA        1 <0>         0.0000
     22 H5          0.4545    1.2358    0.0000 HA        1 <0>         0.0000
     23 H6          0.4545    0.4108    0.0000 HA        1 <0>         0.0000
     24 H7         -1.6889    1.6483    0.0000 HO        1 <0>         0.0000
     25 H8          0.4545   -1.2392    0.0000 HC        1 <0>         0.0000
     26 H9          0.4545   -1.2392    0.0000 HC        1 <0>         0.0000
     27 H10         1.1690   -0.8267    0.0000 HC        1 <0>         0.0000
     28 H11         1.1690   -0.8267    0.0000 HC        1 <0>         0.0000
     29 H12         2.5979   -0.8267    0.0000 HO        1 <0>         0.0000
@<TRIPOS>BOND
     1    1    2 2
     2    2    3 1
     3    2    4 1
     4    4    5 1
     5    4   10 1
     6    4   18 1
     7    5    6 1
     8    5    9 1
     9    5   19 1
    10    6    7 2
    11    7    8 1
    12    8   10 2
    13   10   11 1
    14   11   12 2
    15   11   13 1
    16   13   14 1
    17   14   15 1
    18   15   16 1
    19   15   17 2
    20    3   20 1
    21    6   21 1
    22    7   22 1
    23    8   23 1
    24    9   24 1
    25   13   25 1
    26   13   26 1
    27   14   27 1
    28   14   28 1
    29   16   29 1
@<TRIPOS>MOLECULE
16P
   50    49     0     0     0
SMALL
NO_CHARGES

@<TRIPOS>ATOM
      1 C1         -6.7880   -0.2068    0.0000 CT        1 <0>         0.0000
      2 C2         -6.0735    0.2057    0.0000 CT        1 <0>         0.0000
      3 O1         -5.3589   -0.2068    0.0000 OS        1 <0>         0.0000
      4 C3         -4.6444    0.2057    0.0000 CT        1 <0>         0.0000
      5 C4         -3.9299   -0.2068    0.0000 CT        1 <0>         0.0000
      6 O2         -3.2153    0.2057    0.0000 OS        1 <0>         0.0000
      7 C5         -2.5008   -0.2068    0.0000 CT        1 <0>         0.0000
      8 C6         -1.7863    0.2057    0.0000 CT        1 <0>         0.0000
      9 O3         -1.0718   -0.2068    0.0000 OS        1 <0>         0.0000
     10 C7         -0.3572    0.2057    0.0000 CT        1 <0>         0.0000
     11 C8          0.3572   -0.2068    0.0000 CT        1 <0>         0.0000
     12 O4          1.0718    0.2057    0.0000 OS        1 <0>         0.0000
     13 C9          1.7863   -0.2068    0.0000 CT        1 <0>         0.0000
     14 C10         2.5008    0.2057    0.0000 CT        1 <0>         0.0000
     15 O5          3.2153   -0.2068    0.0000 OS        1 <0>         0.0000
     16 C11         3.9299    0.2057    0.0000 CT        1 <0>         0.0000
     17 C12         4.6444   -0.2068    0.0000 CT        1 <0>         0.0000
     18 O6          5.3589    0.2057    0.0000 OS        1 <0>         0.0000
     19 C13         6.0735   -0.2068    0.0000 CT        1 <0>         0.0000
     20 C14         6.7880    0.2057    0.0000 CT        1 <0>         0.0000
     21 H1         -6.7880   -0.2068    0.0000 HC        1 <0>         0.0000
     22 H2         -6.7880   -0.2068    0.0000 HC        1 <0>         0.0000
     23 H3         -6.7880   -0.2068    0.0000 HC        1 <0>         0.0000
     24 H4         -6.0735    0.2057    0.0000 H1        1 <0>         0.0000
     25 H5         -6.0735    0.2057    0.0000 H1        1 <0>         0.0000
     26 H6         -4.6444    0.2057    0.0000 H1        1 <0>         0.0000
     27 H7         -4.6444    0.2057    0.0000 H1        1 <0>         0.0000
     28 H8         -3.9299   -0.2068    0.0000 H1        1 <0>         0.0000
     29 H9         -3.9299   -0.2068    0.0000 H1        1 <0>         0.0000
     30 H10        -2.5008   -0.2068    0.0000 H1        1 <0>         0.0000
     31 H11        -2.5008   -0.2068    0.0000 H1        1 <0>         0.0000
     32 H12        -1.7863    0.2057    0.0000 H1        1 <0>         0.0000
     33 H13        -1.7863    0.2057    0.0000 H1        1 <0>         0.0000
     34 H14        -0.3572    0.2057    0.0000 H1        1 <0>         0.0000
     35 H15        -0.3572    0.2057    0.0000 H1        1 <0>         0.0000
     36 H16         0.3572   -0.2068    0.0000 H1        1 <0>         0.0000
     37 H17         0.3572   -0.2068    0.0000 H1        1 <0>         0.0000
     38 H18         1.7863   -0.2068    0.0000 H1        1 <0>         0.0000
     39 H19         1.7863   -0.2068    0.0000 H1        1 <0>         0.0000
     40 H20         2.5008    0.2057    0.0000 H1        1 <0>         0.0000
     41 H21         2.5008    0.2057    0.0000 H1        1 <0>         0.0000
     42 H22         3.9299    0.2057    0.0000 H1        1 <0>         0.0000
     43 H23         3.9299    0.2057    0.0000 H1        1 <0>         0.0000
     44 H24         4.6444   -0.2068    0.0000 H1        1 <0>         0.0000
     45 H25         4.6444   -0.2068    0.0000 H1        1 <0>         0.0000
     46 H26         6.0735   -0.2068    0.0000 H1        1 <0>         0.0000
     47 H27         6.0735   -0.2068    0.0000 H1        1 <0>         0.0000
     48 H28         6.7880    0.2057    0.0000 HC        1 <0>         0.0000
     49 H29         6.7880    0.2057    0.0000 HC        1 <0>         0.0000
     50 H30         6.7880    0.2057    0.0000 HC        1 <0>         0.0000
@<TRIPOS>BOND
     1    1    2 1
     2    2    3 1
     3    3    4 1
     4    4    5 1
     5    5    6 1
     6    6    7 1
     7    7    8 1
     8    8    9 1
     9    9   10 1
    10   10   11 1
    11   11   12 1
    12   12   13 1
    13   13   14 1
    14   14   15 1
    15   15   16 1
    16   16   17 1
    17   17   18 1
    18   18   19 1
    19   19   20 1
    20    1   21 1
    21    1   22 1
    22    1   23 1
    23    2   24 1
    24    2   25 1
    25    4   26 1
    26    4   27 1
    27    5   28 1
    28    5   29 1
    29    7   30 1
    30    7   31 1
    31    8   32 1
    32    8   33 1
    33   10   34 1
    34   10   35 1
    35   11   36 1
    36   11   37 1
    37   13   38 1
    38   13   39 1
    39   14   40 1
    40   14   41 1
    41   16   42 1
    42   16   43 1
    43   17   44 1
    44   17   45 1
    45   19   46 1
    46   19   47 1
    47   20   48 1
    48   20   49 1
    49   20   50 1
@<TRIPOS>MOLECULE
*****
   51    54     0     0     0
SMALL
NO_CHARGES

@<TRIPOS>ATOM
      1 C1         10.4746   -7.8095    0.0000 CM        1 <0>         0.0000
      2 C2         10.4746   -8.6345    0.0000 CM        1 <0>         0.0000
      3 C3          9.7601   -7.3970    0.0000 CT        1 <0>         0.0000
      4 C4          9.7601   -9.0470    0.0000 CM        1 <0>         0.0000
      5 C5          9.0457   -7.8095    0.0000 CT        1 <0>         0.0000
      6 C6          9.0457   -8.6345    0.0000 C         1 <0>         0.0000
      7 C7         11.9036   -7.8095    0.0000 CT        1 <0>         0.0000
      8 C8         11.9036   -8.6345    0.0000 CT        1 <0>         0.0000
      9 C9         11.1890   -7.3970    0.0000 CM        1 <0>         0.0000
     10 C10        11.1890   -9.0470    0.0000 CT        1 <0>         0.0000
     11 C11        12.6182   -6.5720    0.0000 CT        1 <0>         0.0000
     12 C12        12.6182   -7.3970    0.0000 CT        1 <0>         0.0000
     13 C13        11.9036   -6.1595    0.0000 CM        1 <0>         0.0000
     14 C14        11.1892   -6.5720    0.0000 CM        1 <0>         0.0000
     15 C15        13.3329   -6.1493    0.0000 CT        1 <0>         0.0000
     16 C16        14.0555   -6.5929    0.0000 CT        1 <0>         0.0000
     17 C17        14.0461   -7.4002    0.0000 CT        1 <0>         0.0000
     18 C18        12.5987   -5.9288    0.0000 CT        1 <0>         0.0000
     19 H1         12.5987   -8.1381    0.0000 HC        1 <0>         0.0000
     20 H2         11.8995   -7.0474    0.0000 HC        1 <0>         0.0000
     21 O1          8.4737   -8.9911    0.0000 O         1 <0>         0.0000
     22 C19        13.0741   -5.6771    0.0000 CT        1 <0>         0.0000
     23 O2         13.7733   -5.5652    0.0000 OH        1 <0>         0.0000
     24 C20        12.1373   -5.6212    0.0000 CT        1 <0>         0.0000
     25 C21        13.0741   -5.1597    0.0000 CT        1 <0>         0.0000
     26 H3          9.7601   -7.3970    0.0000 HC        1 <0>         0.0000
     27 H4          9.7601   -7.3970    0.0000 HC        1 <0>         0.0000
     28 H5          9.7601   -9.0470    0.0000 HA        1 <0>         0.0000
     29 H6          9.0457   -7.8095    0.0000 HC        1 <0>         0.0000
     30 H7          9.0457   -7.8095    0.0000 HC        1 <0>         0.0000
     31 H8         11.9036   -8.6345    0.0000 HC        1 <0>         0.0000
     32 H9         11.9036   -8.6345    0.0000 HC        1 <0>         0.0000
     33 H10        11.1890   -9.0470    0.0000 HC        1 <0>         0.0000
     34 H11        11.1890   -9.0470    0.0000 HC        1 <0>         0.0000
     35 H12        11.9036   -6.1595    0.0000 HA        1 <0>         0.0000
     36 H13        11.1892   -6.5720    0.0000 HA        1 <0>         0.0000
     37 H14        14.0555   -6.5929    0.0000 HC        1 <0>         0.0000
     38 H15        14.0555   -6.5929    0.0000 HC        1 <0>         0.0000
     39 H16        14.0461   -7.4002    0.0000 HC        1 <0>         0.0000
     40 H17        14.0461   -7.4002    0.0000 HC        1 <0>         0.0000
     41 H18        12.5987   -5.9288    0.0000 HC        1 <0>         0.0000
     42 H19        12.5987   -5.9288    0.0000 HC        1 <0>         0.0000
     43 H20        13.0741   -5.6771    0.0000 HC        1 <0>         0.0000
     44 H21        13.0741   -5.6771    0.0000 HC        1 <0>         0.0000
     45 H22        13.7733   -5.5652    0.0000 HO        1 <0>         0.0000
     46 H23        12.1373   -5.6212    0.0000 HC        1 <0>         0.0000
     47 H24        12.1373   -5.6212    0.0000 HC        1 <0>         0.0000
     48 H25        12.1373   -5.6212    0.0000 HC        1 <0>         0.0000
     49 H26        13.0741   -5.1597    0.0000 HC        1 <0>         0.0000
     50 H27        13.0741   -5.1597    0.0000 HC        1 <0>         0.0000
     51 H28        13.0741   -5.1597    0.0000 HC        1 <0>         0.0000
@<TRIPOS>BOND
     1    1    3 1
     2    2    4 2
     3    3    5 1
     4    4    6 1
     5    7    8 1
     6    8   10 1
     7    1    9 2
     8    2   10 1
     9    1    2 1
    10   11   13 1
    11    7   12 1
    12   13   14 2
    13    7    9 1
    14    9   14 1
    15   11   15 1
    16   11   12 1
    17   15   16 1
    18   12   17 1
    19   16   17 1
    20    5    6 1
    21   11   18 1
    22   12   19 1
    23    7   20 1
    24    6   21 2
    25   15   22 1
    26   15   23 1
    27   18   24 1
    28   22   25 1
    29    3   26 1
    30    3   27 1
    31    4   28 1
    32    5   29 1
    33    5   30 1
    34    8   31 1
    35    8   32 1
    36   10   33 1
    37   10   34 1
    38   13   35 1
    39   14   36 1
    40   16   37 1
    41   16   38 1
    42   17   39 1
    43   17   40 1
    44   18   41 1
    45   18   42 1
    46   22   43 1
    47   22   44 1
    48   23   45 1
    49   24   46 1
    50   24   47 1
    51   24   48 1
    52   25   49 1
    53   25   50 1
    54   25   51 1
@<TRIPOS>MOLECULE
17M
   43    46     0     0     0
SMALL
NO_CHARGES

@<TRIPOS>ATOM
      1 C1         -1.0267    1.0529    0.0000 CT        1 <0>         0.0000
      2 C2         -0.6668    0.3105    0.0000 CT        1 <0>         0.0000
      3 C3         -0.1350    0.9412    0.0000 CT        1 <0>         0.0000
      4 C4          0.6771    0.7960    0.0000 CT        1 <0>         0.0000
      5 C5          0.9574    0.0201    0.0000 CA        1 <0>         0.0000
      6 C6          1.7696   -0.1251    0.0000 CB        1 <0>         0.0000
      7 C7          2.3014    0.5056    0.0000 CA        1 <0>         0.0000
      8 C8          3.1135    0.3603    0.0000 CA        1 <0>         0.0000
      9 C9          3.3938   -0.4156    0.0000 CA        1 <0>         0.0000
     10 O1          4.2059   -0.5608    0.0000 OH        1 <0>         0.0000
     11 C10         2.8620   -1.0463    0.0000 CA        1 <0>         0.0000
     12 C11         2.0499   -0.9011    0.0000 CB        1 <0>         0.0000
     13 C12         1.5180   -1.5318    0.0000 CA        1 <0>         0.0000
     14 C13         0.7059   -1.3866    0.0000 CA        1 <0>         0.0000
     15 C14         0.4256   -0.6106    0.0000 CA        1 <0>         0.0000
     16 C15        -0.3865   -0.4654    0.0000 CT        1 <0>         0.0000
     17 C16        -1.0378   -0.9718    0.0000 CT        1 <0>         0.0000
     18 C17        -1.7207   -0.5088    0.0000 CT        1 <0>         0.0000
     19 C18        -1.4914    0.2837    0.0000 CT        1 <0>         0.0000
     20 C19        -1.6128    1.0997    0.0000 CT        1 <0>         0.0000
     21 O2         -2.2522    0.6026    0.0000 OH        1 <0>         0.0000
     22 H1         -0.2466   -1.0323    0.0000 HC        1 <0>         0.0000
     23 H2         -1.0267    1.0529    0.0000 HC        1 <0>         0.0000
     24 H3         -1.0267    1.0529    0.0000 HC        1 <0>         0.0000
     25 H4         -1.0267    1.0529    0.0000 HC        1 <0>         0.0000
     26 H5         -0.1350    0.9412    0.0000 HC        1 <0>         0.0000
     27 H6         -0.1350    0.9412    0.0000 HC        1 <0>         0.0000
     28 H7          0.6771    0.7960    0.0000 HC        1 <0>         0.0000
     29 H8          0.6771    0.7960    0.0000 HC        1 <0>         0.0000
     30 H9          2.3014    0.5056    0.0000 HA        1 <0>         0.0000
     31 H10         3.1135    0.3603    0.0000 HA        1 <0>         0.0000
     32 H11         4.2059   -0.5608    0.0000 HO        1 <0>         0.0000
     33 H12         2.8620   -1.0463    0.0000 HA        1 <0>         0.0000
     34 H13         1.5180   -1.5318    0.0000 HA        1 <0>         0.0000
     35 H14         0.7059   -1.3866    0.0000 HA        1 <0>         0.0000
     36 H15        -1.0378   -0.9718    0.0000 HC        1 <0>         0.0000
     37 H16        -1.0378   -0.9718    0.0000 HC        1 <0>         0.0000
     38 H17        -1.7207   -0.5088    0.0000 HC        1 <0>         0.0000
     39 H18        -1.7207   -0.5088    0.0000 HC        1 <0>         0.0000
     40 H19        -1.6128    1.0997    0.0000 HC        1 <0>         0.0000
     41 H20        -1.6128    1.0997    0.0000 HC        1 <0>         0.0000
     42 H21        -1.6128    1.0997    0.0000 HC        1 <0>         0.0000
     43 H22        -2.2522    0.6026    0.0000 HO        1 <0>         0.0000
@<TRIPOS>BOND
     1    1    2 1
     2    2    3 1
     3    2   16 1
     4    2   19 1
     5    3    4 1
     6    4    5 1
     7    5    6 ar
     8    5   15 ar
     9    6    7 ar
    10    6   12 ar
    11    7    8 ar
    12    8    9 ar
    13    9   10 1
    14    9   11 ar
    15   11   12 ar
    16   12   13 ar
    17   13   14 ar
    18   14   15 ar
    19   15   16 1
    20   16   17 1
    21   16   22 1
    22   17   18 1
    23   18   19 1
    24   19   20 1
    25   19   21 1
    26    1   23 1
    27    1   24 1
    28    1   25 1
    29    3   26 1
    30    3   27 1
    31    4   28 1
    32    4   29 1
    33    7   30 1
    34    8   31 1
    35   10   32 1
    36   11   33 1
    37   13   34 1
    38   14   35 1
    39   17   36 1
    40   17   37 1
    41   18   38 1
    42   18   39 1
    43   20   40 1
    44   20   41 1
    45   20   42 1
    46   21   43 1
@<TRIPOS>MOLECULE
*****
   39    38     0     0     0
SMALL
NO_CHARGES

@<TRIPOS>ATOM
      1 C1          5.1734   -9.6562    0.0000 CT        1 <0>         0.0000
      2 C2          5.8879   -9.2437    0.0000 CT        1 <0>         0.0000
      3 C3          6.6024   -9.6562    0.0000 CT        1 <0>         0.0000
      4 C4          7.3169   -9.2437    0.0000 CT        1 <0>         0.0000
      5 C5          8.0314   -9.6562    0.0000 CT        1 <0>         0.0000
      6 C6          8.7458   -9.2437    0.0000 CT        1 <0>         0.0000
      7 C7          9.4603   -9.6562    0.0000 CT        1 <0>         0.0000
      8 C8         10.1748   -9.2437    0.0000 CT        1 <0>         0.0000
      9 C9         10.8892   -9.6562    0.0000 CT        1 <0>         0.0000
     10 C10        11.6037   -9.2437    0.0000 CT        1 <0>         0.0000
     11 C11        12.3182   -9.6562    0.0000 CT        1 <0>         0.0000
     12 C12        13.0327   -9.2437    0.0000 CT        1 <0>         0.0000
     13 O1         13.7472   -9.6562    0.0000 OH        1 <0>         0.0000
     14 H1          5.1734   -9.6562    0.0000 HC        1 <0>         0.0000
     15 H2          5.1734   -9.6562    0.0000 HC        1 <0>         0.0000
     16 H3          5.1734   -9.6562    0.0000 HC        1 <0>         0.0000
     17 H4          5.8879   -9.2437    0.0000 HC        1 <0>         0.0000
     18 H5          5.8879   -9.2437    0.0000 HC        1 <0>         0.0000
     19 H6          6.6024   -9.6562    0.0000 HC        1 <0>         0.0000
     20 H7          6.6024   -9.6562    0.0000 HC        1 <0>         0.0000
     21 H8          7.3169   -9.2437    0.0000 HC        1 <0>         0.0000
     22 H9          7.3169   -9.2437    0.0000 HC        1 <0>         0.0000
     23 H10         8.0314   -9.6562    0.0000 HC        1 <0>         0.0000
     24 H11         8.0314   -9.6562    0.0000 HC        1 <0>         0.0000
     25 H12         8.7458   -9.2437    0.0000 HC        1 <0>         0.0000
     26 H13         8.7458   -9.2437    0.0000 HC        1 <0>         0.0000
     27 H14         9.4603   -9.6562    0.0000 HC        1 <0>         0.0000
     28 H15         9.4603   -9.6562    0.0000 HC        1 <0>         0.0000
     29 H16        10.1748   -9.2437    0.0000 HC        1 <0>         0.0000
     30 H17        10.1748   -9.2437    0.0000 HC        1 <0>         0.0000
     31 H18        10.8892   -9.6562    0.0000 HC        1 <0>         0.0000
     32 H19        10.8892   -9.6562    0.0000 HC        1 <0>         0.0000
     33 H20        11.6037   -9.2437    0.0000 HC        1 <0>         0.0000
     34 H21        11.6037   -9.2437    0.0000 HC        1 <0>         0.0000
     35 H22        12.3182   -9.6562    0.0000 HC        1 <0>         0.0000
     36 H23        12.3182   -9.6562    0.0000 HC        1 <0>         0.0000
     37 H24        13.0327   -9.2437    0.0000 H1        1 <0>         0.0000
     38 H25        13.0327   -9.2437    0.0000 H1        1 <0>         0.0000
     39 H26        13.7472   -9.6562    0.0000 HO        1 <0>         0.0000
@<TRIPOS>BOND
     1    1    2 1
     2    2    3 1
     3    3    4 1
     4    4    5 1
     5    5    6 1
     6    6    7 1
     7    7    8 1
     8    8    9 1
     9    9   10 1
    10   10   11 1
    11   11   12 1
    12   12   13 1
    13    1   14 1
    14    1   15 1
    15    1   16 1
    16    2   17 1
    17    2   18 1
    18    3   19 1
    19    3   20 1
    20    4   21 1
    21    4   22 1
    22    5   23 1
    23    5   24 1
    24    6   25 1
    25    6   26 1
    26    7   27 1
    27    7   28 1
    28    8   29 1
    29    8   30 1
    30    9   31 1
    31    9   32 1
    32   10   33 1
    33   10   34 1
    34   11   35 1
    35   11   36 1
    36   12   37 1
    37   12   38 1
    38   13   39 1
@<TRIPOS>MOLECULE
1NB
   28    28     0     0     0
SMALL
NO_CHARGES

@<TRIPOS>ATOM
      1 C1          0.4611    0.4681    0.0000 CT        1 <0>         0.0000
      2 C2          0.4611   -0.3569    0.0000 CT        1 <0>         0.0000
      3 C3          1.1285   -0.8418    0.0000 CT        1 <0>         0.0000
      4 C4         -0.2534    1.7056    0.0000 CM        1 <0>         0.0000
      5 O1          1.8900    0.4681    0.0000 O         1 <0>         0.0000
      6 O2         -0.9910   -0.5868    0.0000 OH        1 <0>         0.0000
      7 C5          0.8736   -1.6264    0.0000 CT        1 <0>         0.0000
      8 C6         -0.2064   -0.8418    0.0000 CT        1 <0>         0.0000
      9 C7         -0.2534    0.8806    0.0000 CT        1 <0>         0.0000
     10 C8          0.0486   -1.6264    0.0000 CT        1 <0>         0.0000
     11 C9         -0.9679    2.1181    0.0000 CM        1 <0>         0.0000
     12 C10         1.1756    0.8806    0.0000 C         1 <0>         0.0000
     13 H1         -0.0446    0.1762    0.0000 HC        1 <0>         0.0000
     14 H2          0.9814   -0.0918    0.0000 HC        1 <0>         0.0000
     15 H3         -0.2977   -0.2650    0.0000 H1        1 <0>         0.0000
     16 H4          1.1285   -0.8418    0.0000 HC        1 <0>         0.0000
     17 H5          1.1285   -0.8418    0.0000 HC        1 <0>         0.0000
     18 H6         -0.2534    1.7056    0.0000 HA        1 <0>         0.0000
     19 H7         -0.9910   -0.5868    0.0000 HO        1 <0>         0.0000
     20 H8          0.8736   -1.6264    0.0000 HC        1 <0>         0.0000
     21 H9          0.8736   -1.6264    0.0000 HC        1 <0>         0.0000
     22 H10        -0.2534    0.8806    0.0000 HC        1 <0>         0.0000
     23 H11        -0.2534    0.8806    0.0000 HC        1 <0>         0.0000
     24 H12         0.0486   -1.6264    0.0000 HC        1 <0>         0.0000
     25 H13         0.0486   -1.6264    0.0000 HC        1 <0>         0.0000
     26 H14        -0.9679    2.1181    0.0000 HA        1 <0>         0.0000
     27 H15        -0.9679    2.1181    0.0000 HA        1 <0>         0.0000
     28 H16         1.1756    0.8806    0.0000 H4        1 <0>         0.0000
@<TRIPOS>BOND
     1    1    2 1
     2    1    9 1
     3    1   12 1
     4    1   13 1
     5    2    3 1
     6    2    8 1
     7    2   14 1
     8    3    7 1
     9    4    9 1
    10    4   11 2
    11    5   12 2
    12    6    8 1
    13    7   10 1
    14    8   10 1
    15    8   15 1
    16    3   16 1
    17    3   17 1
    18    4   18 1
    19    6   19 1
    20    7   20 1
    21    7   21 1
    22    9   22 1
    23    9   23 1
    24   10   24 1
    25   10   25 1
    26   11   26 1
    27   11   27 1
    28   12   28 1
@<TRIPOS>MOLECULE
1OH
   32    33     0     0     0
SMALL
NO_CHARGES

@<TRIPOS>ATOM
      1 O1          0.1101    3.2908    0.0000 OH        1 <0>         0.0000
      2 C1          0.1101    2.4658    0.0000 CA        1 <0>         0.0000
      3 C2          0.8246    2.0533    0.0000 CA        1 <0>         0.0000
      4 C3          0.8246    1.2283    0.0000 CA        1 <0>         0.0000
      5 C4         -0.6044    2.0533    0.0000 CA        1 <0>         0.0000
      6 C5         -0.6044    1.2283    0.0000 CA        1 <0>         0.0000
      7 C6          0.1101    0.8158    0.0000 CA        1 <0>         0.0000
      8 C7          0.1101   -0.0092    0.0000 CT        1 <0>         0.0000
      9 C8          0.9351   -0.0092    0.0000 CT        1 <0>         0.0000
     10 C9         -0.7149   -0.0092    0.0000 CT        1 <0>         0.0000
     11 C10         0.1101   -0.8342    0.0000 CA        1 <0>         0.0000
     12 C11        -0.6044   -1.2467    0.0000 CA        1 <0>         0.0000
     13 C12        -0.6044   -2.0717    0.0000 CA        1 <0>         0.0000
     14 C13         0.1101   -2.4842    0.0000 CA        1 <0>         0.0000
     15 C14         0.8246   -2.0717    0.0000 CA        1 <0>         0.0000
     16 C15         0.8246   -1.2467    0.0000 CA        1 <0>         0.0000
     17 H1          0.1101    3.2908    0.0000 HO        1 <0>         0.0000
     18 H2          0.8246    2.0533    0.0000 HA        1 <0>         0.0000
     19 H3          0.8246    1.2283    0.0000 HA        1 <0>         0.0000
     20 H4         -0.6044    2.0533    0.0000 HA        1 <0>         0.0000
     21 H5         -0.6044    1.2283    0.0000 HA        1 <0>         0.0000
     22 H6          0.9351   -0.0092    0.0000 HC        1 <0>         0.0000
     23 H7          0.9351   -0.0092    0.0000 HC        1 <0>         0.0000
     24 H8          0.9351   -0.0092    0.0000 HC        1 <0>         0.0000
     25 H9         -0.7149   -0.0092    0.0000 HC        1 <0>         0.0000
     26 H10        -0.7149   -0.0092    0.0000 HC        1 <0>         0.0000
     27 H11        -0.7149   -0.0092    0.0000 HC        1 <0>         0.0000
     28 H12        -0.6044   -1.2467    0.0000 HA        1 <0>         0.0000
     29 H13        -0.6044   -2.0717    0.0000 HA        1 <0>         0.0000
     30 H14         0.1101   -2.4842    0.0000 HA        1 <0>         0.0000
     31 H15         0.8246   -2.0717    0.0000 HA        1 <0>         0.0000
     32 H16         0.8246   -1.2467    0.0000 HA        1 <0>         0.0000
@<TRIPOS>BOND
     1    1    2 1
     2    2    3 ar
     3    3    4 ar
     4    2    5 ar
     5    5    6 ar
     6    6    7 ar
     7    4    7 ar
     8    7    8 1
     9    8   10 1
    10    8    9 1
    11    8   11 1
    12   11   12 ar
    13   12   13 ar
    14   14   15 ar
    15   13   14 ar
    16   15   16 ar
    17   11   16 ar
    18    1   17 1
    19    3   18 1
    20    4   19 1
    21    5   20 1
    22    6   21 1
    23    9   22 1
    24    9   23 1
    25    9   24 1
    26   10   25 1
    27   10   26 1
    28   10   27 1
    29   12   28 1
    30   13   29 1
    31   14   30 1
    32   15   31 1
    33   16   32 1
@<TRIPOS>MOLECULE
1PL
   39    41     0     0     0
SMALL
NO_CHARGES

@<TRIPOS>ATOM
      1 C1          0.4200   -1.1401    0.0000 CT        1 <0>         0.0000
      2 C2         -0.0649   -0.4726    0.0000 CT        1 <0>         0.0000
      3 C3         -0.8899   -0.4726    0.0000 CT        1 <0>         0.0000
      4 C4         -1.1448    0.3120    0.0000 CT        1 <0>         0.0000
      5 C5         -0.4774    0.7969    0.0000 CT        1 <0>         0.0000
      6 C6          0.1900    0.3120    0.0000 CT        1 <0>         0.0000
      7 C7          0.4450   -0.4726    0.0000 CT        1 <0>         0.0000
      8 C8          1.2700   -0.4726    0.0000 CT        1 <0>         0.0000
      9 C9          2.0769   -0.6441    0.0000 CT        1 <0>         0.0000
     10 C10         1.1837   -1.2931    0.0000 CT        1 <0>         0.0000
     11 C11         1.5249    0.3120    0.0000 CT        1 <0>         0.0000
     12 C12         0.8575    0.7969    0.0000 CT        1 <0>         0.0000
     13 C13         0.6025    1.5816    0.0000 CM        1 <0>         0.0000
     14 C14        -0.2225    1.5816    0.0000 CM        1 <0>         0.0000
     15 C15        -0.7074    2.2490    0.0000 C         1 <0>         0.0000
     16 O1         -1.5279    2.1628    0.0000 OH        1 <0>         0.0000
     17 O2         -0.3718    3.0027    0.0000 O         1 <0>         0.0000
     18 H1         -0.3300   -0.9929    0.0000 HC        1 <0>         0.0000
     19 H2         -0.9498    1.1402    0.0000 HC        1 <0>         0.0000
     20 H3          1.3299    1.1402    0.0000 HC        1 <0>         0.0000
     21 H4          0.4200   -1.1401    0.0000 HC        1 <0>         0.0000
     22 H5          0.4200   -1.1401    0.0000 HC        1 <0>         0.0000
     23 H6          0.4200   -1.1401    0.0000 HC        1 <0>         0.0000
     24 H7         -0.8899   -0.4726    0.0000 HC        1 <0>         0.0000
     25 H8         -0.8899   -0.4726    0.0000 HC        1 <0>         0.0000
     26 H9         -1.1448    0.3120    0.0000 HC        1 <0>         0.0000
     27 H10        -1.1448    0.3120    0.0000 HC        1 <0>         0.0000
     28 H11         0.4450   -0.4726    0.0000 HC        1 <0>         0.0000
     29 H12         0.4450   -0.4726    0.0000 HC        1 <0>         0.0000
     30 H13         2.0769   -0.6441    0.0000 HC        1 <0>         0.0000
     31 H14         2.0769   -0.6441    0.0000 HC        1 <0>         0.0000
     32 H15         2.0769   -0.6441    0.0000 HC        1 <0>         0.0000
     33 H16         1.1837   -1.2931    0.0000 HC        1 <0>         0.0000
     34 H17         1.1837   -1.2931    0.0000 HC        1 <0>         0.0000
     35 H18         1.1837   -1.2931    0.0000 HC        1 <0>         0.0000
     36 H19         1.5249    0.3120    0.0000 HC        1 <0>         0.0000
     37 H20         1.5249    0.3120    0.0000 HC        1 <0>         0.0000
     38 H21         0.6025    1.5816    0.0000 HA        1 <0>         0.0000
     39 H22        -1.5279    2.1628    0.0000 HO        1 <0>         0.0000
@<TRIPOS>BOND
     1    1    2 1
     2    2    3 1
     3    2    6 1
     4    2   18 1
     5    3    4 1
     6    4    5 1
     7    5   14 1
     8    5   19 1
     9    5    6 1
    10    6   12 1
    11    6    7 1
    12    7    8 1
    13    8   10 1
    14    8   11 1
    15    8    9 1
    16   11   12 1
    17   12   13 1
    18   12   20 1
    19   13   14 2
    20   14   15 1
    21   15   16 1
    22   15   17 2
    23    1   21 1
    24    1   22 1
    25    1   23 1
    26    3   24 1
    27    3   25 1
    28    4   26 1
    29    4   27 1
    30    7   28 1
    31    7   29 1
    32    9   30 1
    33    9   31 1
    34    9   32 1
    35   10   33 1
    36   10   34 1
    37   10   35 1
    38   11   36 1
    39   11   37 1
    40   13   38 1
    41   16   39 1
@<TRIPOS>MOLECULE
220
   39    38     0     0     0
SMALL
NO_CHARGES

@<TRIPOS>ATOM
      1 O1         -0.9299   -1.9276    0.0000 O         1 <0>         0.0000
      2 C1         -0.2154   -2.3401    0.0000 C         1 <0>         0.0000
      3 C2          0.4991   -1.9276    0.0000 CT        1 <0>         0.0000
      4 C3          1.2135   -2.3401    0.0000 CT        1 <0>         0.0000
      5 C4          1.9280   -1.9276    0.0000 CT        1 <0>         0.0000
      6 C5          2.6425   -2.3401    0.0000 CM        1 <0>         0.0000
      7 C6          3.3569   -1.9276    0.0000 CM        1 <0>         0.0000
      8 C7          3.3569   -1.1026    0.0000 CT        1 <0>         0.0000
      9 C8          2.6425   -0.6901    0.0000 CT        1 <0>         0.0000
     10 C9          2.6425    0.1349    0.0000 CM        1 <0>         0.0000
     11 C10         1.9280    0.5474    0.0000 CM        1 <0>         0.0000
     12 C11         1.2135    0.1349    0.0000 CT        1 <0>         0.0000
     13 C12         1.2135   -0.6901    0.0000 CT        1 <0>         0.0000
     14 C13         0.4991   -1.1026    0.0000 C         1 <0>         0.0000
     15 O2         -0.2154   -0.6901    0.0000 O         1 <0>         0.0000
     16 C14         1.9280    1.3724    0.0000 C         1 <0>         0.0000
     17 O3          1.2135    1.7849    0.0000 O         1 <0>         0.0000
     18 C15         4.0714   -2.3401    0.0000 C         1 <0>         0.0000
     19 O4          4.7859   -1.9276    0.0000 O         1 <0>         0.0000
     20 H1         -0.2154   -2.3401    0.0000 H4        1 <0>         0.0000
     21 H2          0.4991   -1.9276    0.0000 HC        1 <0>         0.0000
     22 H3          0.4991   -1.9276    0.0000 HC        1 <0>         0.0000
     23 H4          1.2135   -2.3401    0.0000 HC        1 <0>         0.0000
     24 H5          1.2135   -2.3401    0.0000 HC        1 <0>         0.0000
     25 H6          1.9280   -1.9276    0.0000 HC        1 <0>         0.0000
     26 H7          1.9280   -1.9276    0.0000 HC        1 <0>         0.0000
     27 H8          2.6425   -2.3401    0.0000 HA        1 <0>         0.0000
     28 H9          3.3569   -1.1026    0.0000 HC        1 <0>         0.0000
     29 H10         3.3569   -1.1026    0.0000 HC        1 <0>         0.0000
     30 H11         2.6425   -0.6901    0.0000 HC        1 <0>         0.0000
     31 H12         2.6425   -0.6901    0.0000 HC        1 <0>         0.0000
     32 H13         2.6425    0.1349    0.0000 HA        1 <0>         0.0000
     33 H14         1.2135    0.1349    0.0000 HC        1 <0>         0.0000
     34 H15         1.2135    0.1349    0.0000 HC        1 <0>         0.0000
     35 H16         1.2135   -0.6901    0.0000 HC        1 <0>         0.0000
     36 H17         1.2135   -0.6901    0.0000 HC        1 <0>         0.0000
     37 H18         0.4991   -1.1026    0.0000 H4        1 <0>         0.0000
     38 H19         1.9280    1.3724    0.0000 H4        1 <0>         0.0000
     39 H20         4.0714   -2.3401    0.0000 H4        1 <0>         0.0000
@<TRIPOS>BOND
     1    1    2 2
     2    2    3 1
     3    3    4 1
     4    4    5 1
     5    5    6 1
     6    6    7 2
     7    7    8 1
     8    7   18 1
     9    8    9 1
    10    9   10 1
    11   10   11 2
    12   11   12 1
    13   11   16 1
    14   12   13 1
    15   13   14 1
    16   14   15 2
    17   16   17 2
    18   18   19 2
    19    2   20 1
    20    3   21 1
    21    3   22 1
    22    4   23 1
    23    4   24 1
    24    5   25 1
    25    5   26 1
    26    6   27 1
    27    8   28 1
    28    8   29 1
    29    9   30 1
    30    9   31 1
    31   10   32 1
    32   12   33 1
    33   12   34 1
    34   13   35 1
    35   13   36 1
    36   14   37 1
    37   16   38 1
    38   18   39 1
@<TRIPOS>MOLECULE
226
   23    24     0     0     0
SMALL
NO_CHARGES

@<TRIPOS>ATOM
      1 O1          0.2275   -3.3509    0.0000 OH        1 <0>         0.0000
      2 C1          0.2275   -2.5259    0.0000 CA        1 <0>         0.0000
      3 C2          0.9419   -2.1134    0.0000 CB        1 <0>         0.0000
      4 C3          1.6564   -2.5259    0.0000 CA        1 <0>         0.0000
      5 C4          2.3709   -2.1134    0.0000 CA        1 <0>         0.0000
      6 O2          3.0854   -2.5259    0.0000 OH        1 <0>         0.0000
      7 C5          2.3709   -1.2884    0.0000 CA        1 <0>         0.0000
      8 C6          1.6564   -0.8759    0.0000 CA        1 <0>         0.0000
      9 O3          1.6564   -0.0509    0.0000 OH        1 <0>         0.0000
     10 C7          0.9419   -1.2884    0.0000 CB        1 <0>         0.0000
     11 C8          0.2275   -0.8759    0.0000 CA        1 <0>         0.0000
     12 O4          0.2275   -0.0509    0.0000 OH        1 <0>         0.0000
     13 C9         -0.4870   -1.2884    0.0000 CA        1 <0>         0.0000
     14 C10        -0.4870   -2.1134    0.0000 CA        1 <0>         0.0000
     15 O5         -1.2015   -2.5259    0.0000 OH        1 <0>         0.0000
     16 H1          0.2275   -3.3509    0.0000 HO        1 <0>         0.0000
     17 H2          1.6564   -2.5259    0.0000 HA        1 <0>         0.0000
     18 H3          3.0854   -2.5259    0.0000 HO        1 <0>         0.0000
     19 H4          2.3709   -1.2884    0.0000 HA        1 <0>         0.0000
     20 H5          1.6564   -0.0509    0.0000 HO        1 <0>         0.0000
     21 H6          0.2275   -0.0509    0.0000 HO        1 <0>         0.0000
     22 H7         -0.4870   -1.2884    0.0000 HA        1 <0>         0.0000
     23 H8         -1.2015   -2.5259    0.0000 HO        1 <0>         0.0000
@<TRIPOS>BOND
     1    1    2 1
     2    2   14 ar
     3    2    3 ar
     4    3   10 ar
     5    3    4 ar
     6    4    5 ar
     7    5    7 ar
     8    5    6 1
     9    7    8 ar
    10    8    9 1
    11   10   11 ar
    12    8   10 ar
    13   11   12 1
    14   11   13 ar
    15   13   14 ar
    16   14   15 1
    17    1   16 1
    18    4   17 1
    19    6   18 1
    20    7   19 1
    21    9   20 1
    22   12   21 1
    23   13   22 1
    24   15   23 1
@<TRIPOS>MOLECULE
*****
   53    52     0     0     0
SMALL
NO_CHARGES

@<TRIPOS>ATOM
      1 O1         16.0583  -10.6466    0.0000 OH        1 <0>         0.0000
      2 O2         10.3425  -15.5966    0.0000 OH        1 <0>         0.0000
      3 O3          9.6280  -14.3592    0.0000 O         1 <0>         0.0000
      4 C1         16.0583   -9.8216    0.0000 CT        1 <0>         0.0000
      5 C2         16.7727   -9.4092    0.0000 CT        1 <0>         0.0000
      6 C3         17.4872   -9.8216    0.0000 CT        1 <0>         0.0000
      7 C4         11.7714  -12.2966    0.0000 CT        1 <0>         0.0000
      8 C5         11.7714  -13.1216    0.0000 CT        1 <0>         0.0000
      9 C6         12.4859  -11.8841    0.0000 CT        1 <0>         0.0000
     10 C7         18.2016   -9.4092    0.0000 CT        1 <0>         0.0000
     11 C8         11.0571  -13.5342    0.0000 CT        1 <0>         0.0000
     12 C9         12.4859  -11.0592    0.0000 CT        1 <0>         0.0000
     13 C10        18.9161   -9.8216    0.0000 CT        1 <0>         0.0000
     14 C11        11.0571  -14.3592    0.0000 CT        1 <0>         0.0000
     15 C12        13.2003  -10.6466    0.0000 CT        1 <0>         0.0000
     16 C13        19.6306   -9.4092    0.0000 CT        1 <0>         0.0000
     17 C14        10.3425  -14.7716    0.0000 C         1 <0>         0.0000
     18 C15        15.3437   -9.4092    0.0000 CM        1 <0>         0.0000
     19 C16        13.2003   -9.8216    0.0000 CM        1 <0>         0.0000
     20 C17        14.6293   -9.8216    0.0000 CM        1 <0>         0.0000
     21 C18        13.9149   -9.4092    0.0000 CM        1 <0>         0.0000
     22 H1         16.0583  -10.6466    0.0000 HO        1 <0>         0.0000
     23 H2         10.3425  -15.5966    0.0000 HO        1 <0>         0.0000
     24 H3         16.0583   -9.8216    0.0000 H1        1 <0>         0.0000
     25 H4         16.7727   -9.4092    0.0000 HC        1 <0>         0.0000
     26 H5         16.7727   -9.4092    0.0000 HC        1 <0>         0.0000
     27 H6         17.4872   -9.8216    0.0000 HC        1 <0>         0.0000
     28 H7         17.4872   -9.8216    0.0000 HC        1 <0>         0.0000
     29 H8         11.7714  -12.2966    0.0000 HC        1 <0>         0.0000
     30 H9         11.7714  -12.2966    0.0000 HC        1 <0>         0.0000
     31 H10        11.7714  -13.1216    0.0000 HC        1 <0>         0.0000
     32 H11        11.7714  -13.1216    0.0000 HC        1 <0>         0.0000
     33 H12        12.4859  -11.8841    0.0000 HC        1 <0>         0.0000
     34 H13        12.4859  -11.8841    0.0000 HC        1 <0>         0.0000
     35 H14        18.2016   -9.4092    0.0000 HC        1 <0>         0.0000
     36 H15        18.2016   -9.4092    0.0000 HC        1 <0>         0.0000
     37 H16        11.0571  -13.5342    0.0000 HC        1 <0>         0.0000
     38 H17        11.0571  -13.5342    0.0000 HC        1 <0>         0.0000
     39 H18        12.4859  -11.0592    0.0000 HC        1 <0>         0.0000
     40 H19        12.4859  -11.0592    0.0000 HC        1 <0>         0.0000
     41 H20        18.9161   -9.8216    0.0000 HC        1 <0>         0.0000
     42 H21        18.9161   -9.8216    0.0000 HC        1 <0>         0.0000
     43 H22        11.0571  -14.3592    0.0000 HC        1 <0>         0.0000
     44 H23        11.0571  -14.3592    0.0000 HC        1 <0>         0.0000
     45 H24        13.2003  -10.6466    0.0000 HC        1 <0>         0.0000
     46 H25        13.2003  -10.6466    0.0000 HC        1 <0>         0.0000
     47 H26        19.6306   -9.4092    0.0000 HC        1 <0>         0.0000
     48 H27        19.6306   -9.4092    0.0000 HC        1 <0>         0.0000
     49 H28        19.6306   -9.4092    0.0000 HC        1 <0>         0.0000
     50 H29        15.3437   -9.4092    0.0000 HA        1 <0>         0.0000
     51 H30        13.2003   -9.8216    0.0000 HA        1 <0>         0.0000
     52 H31        14.6293   -9.8216    0.0000 HA        1 <0>         0.0000
     53 H32        13.9149   -9.4092    0.0000 HA        1 <0>         0.0000
@<TRIPOS>BOND
     1    1    4 1
     2    2   17 1
     3    3   17 2
     4    4    5 1
     5    4   18 1
     6    5    6 1
     7    6   10 1
     8    7    8 1
     9    7    9 1
    10    8   11 1
    11    9   12 1
    12   10   13 1
    13   11   14 1
    14   12   15 1
    15   13   16 1
    16   14   17 1
    17   15   19 1
    18   18   20 2
    19   19   21 2
    20   20   21 1
    21    1   22 1
    22    2   23 1
    23    4   24 1
    24    5   25 1
    25    5   26 1
    26    6   27 1
    27    6   28 1
    28    7   29 1
    29    7   30 1
    30    8   31 1
    31    8   32 1
    32    9   33 1
    33    9   34 1
    34   10   35 1
    35   10   36 1
    36   11   37 1
    37   11   38 1
    38   12   39 1
    39   12   40 1
    40   13   41 1
    41   13   42 1
    42   14   43 1
    43   14   44 1
    44   15   45 1
    45   15   46 1
    46   16   47 1
    47   16   48 1
    48   16   49 1
    49   18   50 1
    50   19   51 1
    51   20   52 1
    52   21   53 1
@<TRIPOS>MOLECULE
2C2
   22    23     0     0     0
SMALL
NO_CHARGES

@<TRIPOS>ATOM
      1 O1          0.6443    1.5196    0.0000 OH        1 <0>         0.0000
      2 C1          0.1140    0.8876    0.0000 C         1 <0>         0.0000
      3 O2         -0.6984    1.0309    0.0000 O         1 <0>         0.0000
      4 C2          0.3962    0.1124    0.0000 CT        1 <0>         0.0000
      5 O3         -0.4163   -0.0309    0.0000 OH        1 <0>         0.0000
      6 O4          1.1107    0.5249    0.0000 OS        1 <0>         0.0000
      7 C3          1.8251    0.1124    0.0000 CA        1 <0>         0.0000
      8 C4          1.8251   -0.7126    0.0000 CA        1 <0>         0.0000
      9 C5          1.1107   -1.1251    0.0000 CM        1 <0>         0.0000
     10 C6          0.3962   -0.7126    0.0000 CM        1 <0>         0.0000
     11 C7          2.5396    0.5249    0.0000 CA        1 <0>         0.0000
     12 C8          3.2541    0.1124    0.0000 CA        1 <0>         0.0000
     13 C9          3.2541   -0.7126    0.0000 CA        1 <0>         0.0000
     14 C10         2.5396   -1.1251    0.0000 CA        1 <0>         0.0000
     15 H1          0.6443    1.5196    0.0000 HO        1 <0>         0.0000
     16 H2         -0.4163   -0.0309    0.0000 HO        1 <0>         0.0000
     17 H3          1.1107   -1.1251    0.0000 HA        1 <0>         0.0000
     18 H4          0.3962   -0.7126    0.0000 HA        1 <0>         0.0000
     19 H5          2.5396    0.5249    0.0000 HA        1 <0>         0.0000
     20 H6          3.2541    0.1124    0.0000 HA        1 <0>         0.0000
     21 H7          3.2541   -0.7126    0.0000 HA        1 <0>         0.0000
     22 H8          2.5396   -1.1251    0.0000 HA        1 <0>         0.0000
@<TRIPOS>BOND
     1    1    2 1
     2    2    3 2
     3    2    4 1
     4    4    5 1
     5    4    6 1
     6    4   10 1
     7    6    7 1
     8    7   11 ar
     9    7    8 ar
    10    8    9 1
    11    8   14 ar
    12    9   10 2
    13   11   12 ar
    14   12   13 ar
    15   13   14 ar
    16    1   15 1
    17    5   16 1
    18    9   17 1
    19   10   18 1
    20   11   19 1
    21   12   20 1
    22   13   21 1
    23   14   22 1
@<TRIPOS>MOLECULE
*****
   33    34     0     0     0
SMALL
NO_CHARGES

@<TRIPOS>ATOM
      1 C1         -2.9684    0.4125    0.0000 CT        1 <0>         0.0000
      2 C2         -1.3184    0.4125    0.0000 CT        1 <0>         0.0000
      3 C3         -1.4289    1.6500    0.0000 CA        1 <0>         0.0000
      4 C4         -2.8579    1.6500    0.0000 CA        1 <0>         0.0000
      5 C5         -2.8579   -0.8250    0.0000 CA        1 <0>         0.0000
      6 C6         -1.4289   -0.8250    0.0000 CA        1 <0>         0.0000
      7 C7         -1.4289    2.4750    0.0000 CA        1 <0>         0.0000
      8 C8         -2.8579    2.4750    0.0000 CA        1 <0>         0.0000
      9 C9         -2.8579   -1.6500    0.0000 CA        1 <0>         0.0000
     10 C10        -1.4289   -1.6500    0.0000 CA        1 <0>         0.0000
     11 C11        -2.1434    1.2375    0.0000 CA        1 <0>         0.0000
     12 C12        -2.1434   -0.4125    0.0000 CA        1 <0>         0.0000
     13 C13        -2.1434    2.8875    0.0000 CA        1 <0>         0.0000
     14 C14        -2.1434   -2.0625    0.0000 CA        1 <0>         0.0000
     15 C15        -2.1434    0.4125    0.0000 CT        1 <0>         0.0000
     16 O1         -2.1434    3.7125    0.0000 OH        1 <0>         0.0000
     17 O2         -2.1434   -2.8875    0.0000 OH        1 <0>         0.0000
     18 H1         -2.9684    0.4125    0.0000 HC        1 <0>         0.0000
     19 H2         -2.9684    0.4125    0.0000 HC        1 <0>         0.0000
     20 H3         -2.9684    0.4125    0.0000 HC        1 <0>         0.0000
     21 H4         -1.3184    0.4125    0.0000 HC        1 <0>         0.0000
     22 H5         -1.3184    0.4125    0.0000 HC        1 <0>         0.0000
     23 H6         -1.3184    0.4125    0.0000 HC        1 <0>         0.0000
     24 H7         -1.4289    1.6500    0.0000 HA        1 <0>         0.0000
     25 H8         -2.8579    1.6500    0.0000 HA        1 <0>         0.0000
     26 H9         -2.8579   -0.8250    0.0000 HA        1 <0>         0.0000
     27 H10        -1.4289   -0.8250    0.0000 HA        1 <0>         0.0000
     28 H11        -1.4289    2.4750    0.0000 HA        1 <0>         0.0000
     29 H12        -2.8579    2.4750    0.0000 HA        1 <0>         0.0000
     30 H13        -2.8579   -1.6500    0.0000 HA        1 <0>         0.0000
     31 H14        -1.4289   -1.6500    0.0000 HA        1 <0>         0.0000
     32 H15        -2.1434    3.7125    0.0000 HO        1 <0>         0.0000
     33 H16        -2.1434   -2.8875    0.0000 HO        1 <0>         0.0000
@<TRIPOS>BOND
     1    3    7 ar
     2    4    8 ar
     3    5    9 ar
     4    6   10 ar
     5    3   11 ar
     6    4   11 ar
     7    5   12 ar
     8    6   12 ar
     9    7   13 ar
    10    8   13 ar
    11    9   14 ar
    12   10   14 ar
    13    1   15 1
    14    2   15 1
    15   11   15 1
    16   12   15 1
    17   13   16 1
    18   14   17 1
    19    1   18 1
    20    1   19 1
    21    1   20 1
    22    2   21 1
    23    2   22 1
    24    2   23 1
    25    3   24 1
    26    4   25 1
    27    5   26 1
    28    6   27 1
    29    7   28 1
    30    8   29 1
    31    9   30 1
    32   10   31 1
    33   16   32 1
    34   17   33 1
@<TRIPOS>MOLECULE
397
   27    29     0     0     0
SMALL
NO_CHARGES

@<TRIPOS>ATOM
      1 C1          2.5142   -0.4999    0.0000 CA        1 <0>         0.0000
      2 C2          1.7998   -0.9124    0.0000 CA        1 <0>         0.0000
      3 C3          1.0853   -0.4999    0.0000 CB        1 <0>         0.0000
      4 C4          1.0853    0.3251    0.0000 CB        1 <0>         0.0000
      5 C5          1.7998    0.7376    0.0000 CA        1 <0>         0.0000
      6 C6          2.5142    0.3251    0.0000 CA        1 <0>         0.0000
      7 O1          0.3007   -0.7548    0.0000 OS        1 <0>         0.0000
      8 C7         -0.1843   -0.0874    0.0000 CW        1 <0>         0.0000
      9 C8          0.3007    0.5801    0.0000 CC        1 <0>         0.0000
     10 C9         -1.0093   -0.0874    0.0000 CA        1 <0>         0.0000
     11 C10        -1.4218   -0.8018    0.0000 CA        1 <0>         0.0000
     12 C11        -2.2468   -0.8018    0.0000 CA        1 <0>         0.0000
     13 C12        -2.6593   -0.0874    0.0000 CA        1 <0>         0.0000
     14 C13        -2.2468    0.6271    0.0000 CA        1 <0>         0.0000
     15 C14        -1.4218    0.6271    0.0000 CA        1 <0>         0.0000
     16 O2          3.2287    0.7376    0.0000 OH        1 <0>         0.0000
     17 O3         -3.4843   -0.0874    0.0000 OH        1 <0>         0.0000
     18 H1          2.5142   -0.4999    0.0000 HA        1 <0>         0.0000
     19 H2          1.7998   -0.9124    0.0000 HA        1 <0>         0.0000
     20 H3          1.7998    0.7376    0.0000 HA        1 <0>         0.0000
     21 H4          0.3007    0.5801    0.0000 HA        1 <0>         0.0000
     22 H5         -1.4218   -0.8018    0.0000 HA        1 <0>         0.0000
     23 H6         -2.2468   -0.8018    0.0000 HA        1 <0>         0.0000
     24 H7         -2.2468    0.6271    0.0000 HA        1 <0>         0.0000
     25 H8         -1.4218    0.6271    0.0000 HA        1 <0>         0.0000
     26 H9          3.2287    0.7376    0.0000 HO        1 <0>         0.0000
     27 H10        -3.4843   -0.0874    0.0000 HO        1 <0>         0.0000
@<TRIPOS>BOND
     1    1    2 ar
     2    1    6 ar
     3    2    3 ar
     4    3    4 ar
     5    3    7 1
     6    4    5 ar
     7    4    9 1
     8    5    6 ar
     9    6   16 1
    10    7    8 1
    11    8    9 2
    12    8   10 1
    13   10   11 ar
    14   10   15 ar
    15   11   12 ar
    16   12   13 ar
    17   13   14 ar
    18   13   17 1
    19   14   15 ar
    20    1   18 1
    21    2   19 1
    22    5   20 1
    23    9   21 1
    24   11   22 1
    25   12   23 1
    26   14   24 1
    27   15   25 1
    28   16   26 1
    29   17   27 1
@<TRIPOS>MOLECULE
458
   39    41     0     0     0
SMALL
NO_CHARGES

@<TRIPOS>ATOM
      1 C1          0.8242    0.6900    0.0000 CT        1 <0>         0.0000
      2 C2          0.2744    0.2540    0.0000 CT        1 <0>         0.0000
      3 C3         -0.4796    0.0883    0.0000 CM        1 <0>         0.0000
      4 C4         -0.4191    1.0570    0.0000 CT        1 <0>         0.0000
      5 C5         -0.7715   -0.5486    0.0000 CM        1 <0>         0.0000
      6 C6         -0.2670   -0.1243    0.0000 CT        1 <0>         0.0000
      7 C7          0.6930   -0.1136    0.0000 CT        1 <0>         0.0000
      8 C8          1.5830    0.2141    0.0000 CT        1 <0>         0.0000
      9 O1          2.4189    0.2540    0.0000 OH        1 <0>         0.0000
     10 C9          0.7400   -1.1005    0.0000 CT        1 <0>         0.0000
     11 O2         -0.0763   -1.2800    0.0000 OS        1 <0>         0.0000
     12 C10         0.3358   -0.6991    0.0000 CT        1 <0>         0.0000
     13 C11        -0.4579   -0.4740    0.0000 CA        1 <0>         0.0000
     14 C12        -1.0497   -1.0488    0.0000 CA        1 <0>         0.0000
     15 C13        -1.8434   -0.8237    0.0000 CA        1 <0>         0.0000
     16 C14        -2.0453   -0.0238    0.0000 CA        1 <0>         0.0000
     17 O3         -2.8390    0.2013    0.0000 OH        1 <0>         0.0000
     18 C15        -1.4535    0.5510    0.0000 CA        1 <0>         0.0000
     19 C16        -0.6598    0.3259    0.0000 CA        1 <0>         0.0000
     20 H1          0.4447    0.8126    0.0000 HC        1 <0>         0.0000
     21 H2         -0.1644   -0.3977    0.0000 H1        1 <0>         0.0000
     22 H3          0.8242    0.6900    0.0000 HC        1 <0>         0.0000
     23 H4          0.8242    0.6900    0.0000 HC        1 <0>         0.0000
     24 H5         -0.4191    1.0570    0.0000 HC        1 <0>         0.0000
     25 H6         -0.4191    1.0570    0.0000 HC        1 <0>         0.0000
     26 H7         -0.4191    1.0570    0.0000 HC        1 <0>         0.0000
     27 H8         -0.7715   -0.5486    0.0000 HA        1 <0>         0.0000
     28 H9         -0.2670   -0.1243    0.0000 HC        1 <0>         0.0000
     29 H10        -0.2670   -0.1243    0.0000 HC        1 <0>         0.0000
     30 H11         1.5830    0.2141    0.0000 H1        1 <0>         0.0000
     31 H12         1.5830    0.2141    0.0000 H1        1 <0>         0.0000
     32 H13         2.4189    0.2540    0.0000 HO        1 <0>         0.0000
     33 H14         0.7400   -1.1005    0.0000 H1        1 <0>         0.0000
     34 H15         0.7400   -1.1005    0.0000 H1        1 <0>         0.0000
     35 H16        -1.0497   -1.0488    0.0000 HA        1 <0>         0.0000
     36 H17        -1.8434   -0.8237    0.0000 HA        1 <0>         0.0000
     37 H18        -2.8390    0.2013    0.0000 HO        1 <0>         0.0000
     38 H19        -1.4535    0.5510    0.0000 HA        1 <0>         0.0000
     39 H20        -0.6598    0.3259    0.0000 HA        1 <0>         0.0000
@<TRIPOS>BOND
     1    1    2 1
     2    1    7 1
     3    2    3 1
     4    2   12 1
     5    2   20 1
     6    3    4 1
     7    3    5 2
     8    5    6 1
     9    6    7 1
    10    7    8 1
    11    7   10 1
    12    8    9 1
    13   10   11 1
    14   11   12 1
    15   12   13 1
    16   12   21 1
    17   13   14 ar
    18   13   19 ar
    19   14   15 ar
    20   15   16 ar
    21   16   17 1
    22   16   18 ar
    23   18   19 ar
    24    1   22 1
    25    1   23 1
    26    4   24 1
    27    4   25 1
    28    4   26 1
    29    5   27 1
    30    6   28 1
    31    6   29 1
    32    8   30 1
    33    8   31 1
    34    9   32 1
    35   10   33 1
    36   10   34 1
    37   14   35 1
    38   15   36 1
    39   17   37 1
    40   18   38 1
    41   19   39 1
@<TRIPOS>MOLECULE
459
   44    46     0     0     0
SMALL
NO_CHARGES

@<TRIPOS>ATOM
      1 C1          1.4814    1.4357    0.0000 CT        1 <0>         0.0000
      2 C2          1.1382    0.6536    0.0000 CT        1 <0>         0.0000
      3 C3          0.5884    0.2176    0.0000 CT        1 <0>         0.0000
      4 C4         -0.1656    0.0519    0.0000 CT        1 <0>         0.0000
      5 C5         -0.0726    0.9872    0.0000 CT        1 <0>         0.0000
      6 C6         -0.4575   -0.5850    0.0000 CT        1 <0>         0.0000
      7 C7          0.0470   -0.1607    0.0000 CT        1 <0>         0.0000
      8 C8          1.0070   -0.1500    0.0000 CT        1 <0>         0.0000
      9 C9          1.9026   -0.1363    0.0000 CT        1 <0>         0.0000
     10 O1          2.7087    0.1444    0.0000 OH        1 <0>         0.0000
     11 C10         1.0540   -1.1369    0.0000 CT        1 <0>         0.0000
     12 O2          0.2377   -1.3164    0.0000 OS        1 <0>         0.0000
     13 C11         0.6498   -0.7355    0.0000 CT        1 <0>         0.0000
     14 C12        -0.1439   -0.5104    0.0000 CA        1 <0>         0.0000
     15 C13        -0.7357   -1.0852    0.0000 CA        1 <0>         0.0000
     16 C14        -1.5294   -0.8601    0.0000 CA        1 <0>         0.0000
     17 C15        -1.7313   -0.0602    0.0000 CA        1 <0>         0.0000
     18 O3         -2.5250    0.1649    0.0000 OH        1 <0>         0.0000
     19 C16        -1.1396    0.5146    0.0000 CA        1 <0>         0.0000
     20 C17        -0.3459    0.2895    0.0000 CA        1 <0>         0.0000
     21 H1          1.0132    1.2240    0.0000 HC        1 <0>         0.0000
     22 H2          0.5574    0.8007    0.0000 HC        1 <0>         0.0000
     23 H3          0.2224    0.4883    0.0000 HC        1 <0>         0.0000
     24 H4          0.1496   -0.4341    0.0000 H1        1 <0>         0.0000
     25 H5          1.4814    1.4357    0.0000 HC        1 <0>         0.0000
     26 H6          1.4814    1.4357    0.0000 HC        1 <0>         0.0000
     27 H7          1.4814    1.4357    0.0000 HC        1 <0>         0.0000
     28 H8         -0.0726    0.9872    0.0000 HC        1 <0>         0.0000
     29 H9         -0.0726    0.9872    0.0000 HC        1 <0>         0.0000
     30 H10        -0.0726    0.9872    0.0000 HC        1 <0>         0.0000
     31 H11        -0.4575   -0.5850    0.0000 HC        1 <0>         0.0000
     32 H12        -0.4575   -0.5850    0.0000 HC        1 <0>         0.0000
     33 H13         0.0470   -0.1607    0.0000 HC        1 <0>         0.0000
     34 H14         0.0470   -0.1607    0.0000 HC        1 <0>         0.0000
     35 H15         1.9026   -0.1363    0.0000 H1        1 <0>         0.0000
     36 H16         1.9026   -0.1363    0.0000 H1        1 <0>         0.0000
     37 H17         2.7087    0.1444    0.0000 HO        1 <0>         0.0000
     38 H18         1.0540   -1.1369    0.0000 H1        1 <0>         0.0000
     39 H19         1.0540   -1.1369    0.0000 H1        1 <0>         0.0000
     40 H20        -0.7357   -1.0852    0.0000 HA        1 <0>         0.0000
     41 H21        -1.5294   -0.8601    0.0000 HA        1 <0>         0.0000
     42 H22        -2.5250    0.1649    0.0000 HO        1 <0>         0.0000
     43 H23        -1.1396    0.5146    0.0000 HA        1 <0>         0.0000
     44 H24        -0.3459    0.2895    0.0000 HA        1 <0>         0.0000
@<TRIPOS>BOND
     1    1    2 1
     2    2    3 1
     3    2    8 1
     4    2   21 1
     5    3    4 1
     6    3   13 1
     7    3   22 1
     8    4    5 1
     9    4    6 1
    10    4   23 1
    11    6    7 1
    12    7    8 1
    13    8    9 1
    14    8   11 1
    15    9   10 1
    16   11   12 1
    17   12   13 1
    18   13   14 1
    19   13   24 1
    20   14   15 ar
    21   14   20 ar
    22   15   16 ar
    23   16   17 ar
    24   17   18 1
    25   17   19 ar
    26   19   20 ar
    27    1   25 1
    28    1   26 1
    29    1   27 1
    30    5   28 1
    31    5   29 1
    32    5   30 1
    33    6   31 1
    34    6   32 1
    35    7   33 1
    36    7   34 1
    37    9   35 1
    38    9   36 1
    39   10   37 1
    40   11   38 1
    41   11   39 1
    42   15   40 1
    43   16   41 1
    44   18   42 1
    45   19   43 1
    46   20   44 1
@<TRIPOS>MOLECULE
*****
   24    24     0     0     0
SMALL
NO_CHARGES

@<TRIPOS>ATOM
      1 C1          8.1216  -10.9530    0.0000 CT        1 <0>         0.0000
      2 C2         10.3197   -9.8153    0.0000 CA        1 <0>         0.0000
      3 C3         11.0902   -8.6119    0.0000 CM        1 <0>         0.0000
      4 C4          9.5870  -10.1945    0.0000 CA        1 <0>         0.0000
      5 C5         11.7850   -9.0568    0.0000 CM        1 <0>         0.0000
      6 C6          9.6628   -8.5462    0.0000 CA        1 <0>         0.0000
      7 C7         10.3576   -8.9912    0.0000 CA        1 <0>         0.0000
      8 C8          8.9301   -8.9255    0.0000 CA        1 <0>         0.0000
      9 C9          8.8922   -9.7497    0.0000 CA        1 <0>         0.0000
     10 C10        12.5176   -8.6775    0.0000 C         1 <0>         0.0000
     11 O1          8.2353   -8.4807    0.0000 OH        1 <0>         0.0000
     12 O2         12.5555   -7.8534    0.0000 OH        1 <0>         0.0000
     13 O3         13.2124   -9.1224    0.0000 O         1 <0>         0.0000
     14 O4          8.1595  -10.1289    0.0000 OS        1 <0>         0.0000
     15 H1          8.1216  -10.9530    0.0000 H1        1 <0>         0.0000
     16 H2          8.1216  -10.9530    0.0000 H1        1 <0>         0.0000
     17 H3          8.1216  -10.9530    0.0000 H1        1 <0>         0.0000
     18 H4         10.3197   -9.8153    0.0000 HA        1 <0>         0.0000
     19 H5         11.0902   -8.6119    0.0000 HA        1 <0>         0.0000
     20 H6          9.5870  -10.1945    0.0000 HA        1 <0>         0.0000
     21 H7         11.7850   -9.0568    0.0000 HA        1 <0>         0.0000
     22 H8          9.6628   -8.5462    0.0000 HA        1 <0>         0.0000
     23 H9          8.2353   -8.4807    0.0000 HO        1 <0>         0.0000
     24 H10        12.5555   -7.8534    0.0000 HO        1 <0>         0.0000
@<TRIPOS>BOND
     1    1   14 1
     2    2    4 ar
     3    2    7 ar
     4    3    7 1
     5    3    5 2
     6    4    9 ar
     7    5   10 1
     8    6    7 ar
     9    6    8 ar
    10    8    9 ar
    11    8   11 1
    12    9   14 1
    13   10   12 1
    14   10   13 2
    15    1   15 1
    16    1   16 1
    17    1   17 1
    18    2   18 1
    19    3   19 1
    20    4   20 1
    21    5   21 1
    22    6   22 1
    23   11   23 1
    24   12   24 1
@<TRIPOS>MOLECULE
4HD
   57    56     0     0     0
SMALL
NO_CHARGES

@<TRIPOS>ATOM
      1 O1         -3.9422   -1.6735    0.0000 OH        1 <0>         0.0000
      2 O2         -3.2277   -2.9110    0.0000 O         1 <0>         0.0000
      3 C1         -3.2277   -2.0860    0.0000 C         1 <0>         0.0000
      4 C2         -2.5133   -1.6735    0.0000 CT        1 <0>         0.0000
      5 C3         -1.7988   -2.0860    0.0000 CT        1 <0>         0.0000
      6 C4         -1.0843   -1.6735    0.0000 CT        1 <0>         0.0000
      7 C5         -0.3699   -2.0860    0.0000 CM        1 <0>         0.0000
      8 C6          0.3446   -1.6735    0.0000 CM        1 <0>         0.0000
      9 C7          1.0591   -2.0860    0.0000 CM        1 <0>         0.0000
     10 C8          1.7736   -1.6735    0.0000 CM        1 <0>         0.0000
     11 C9          1.7736   -0.8485    0.0000 CT        1 <0>         0.0000
     12 C10         2.4880   -0.4360    0.0000 CM        1 <0>         0.0000
     13 C11         2.4880    0.3890    0.0000 CM        1 <0>         0.0000
     14 C12         1.7736    0.8015    0.0000 CT        1 <0>         0.0000
     15 C13         1.7736    1.6265    0.0000 CM        1 <0>         0.0000
     16 C14         1.0591    2.0390    0.0000 CM        1 <0>         0.0000
     17 C15         0.3446    1.6265    0.0000 CT        1 <0>         0.0000
     18 C16        -0.3699    2.0390    0.0000 CM        1 <0>         0.0000
     19 C17        -1.0843    1.6265    0.0000 CM        1 <0>         0.0000
     20 C18        -1.0843    0.8015    0.0000 CT        1 <0>         0.0000
     21 C19        -1.7988    0.3890    0.0000 CM        1 <0>         0.0000
     22 C20        -2.5133    0.8015    0.0000 CM        1 <0>         0.0000
     23 C21        -2.5133    1.6265    0.0000 CT        1 <0>         0.0000
     24 C22        -1.7988    2.0390    0.0000 CT        1 <0>         0.0000
     25 O3         -1.0843   -0.8485    0.0000 OH        1 <0>         0.0000
     26 H1         -1.0843   -2.2574    0.0000 H1        1 <0>         0.0000
     27 H2         -3.9422   -1.6735    0.0000 HO        1 <0>         0.0000
     28 H3         -2.5133   -1.6735    0.0000 HC        1 <0>         0.0000
     29 H4         -2.5133   -1.6735    0.0000 HC        1 <0>         0.0000
     30 H5         -1.7988   -2.0860    0.0000 HC        1 <0>         0.0000
     31 H6         -1.7988   -2.0860    0.0000 HC        1 <0>         0.0000
     32 H7         -0.3699   -2.0860    0.0000 HA        1 <0>         0.0000
     33 H8          0.3446   -1.6735    0.0000 HA        1 <0>         0.0000
     34 H9          1.0591   -2.0860    0.0000 HA        1 <0>         0.0000
     35 H10         1.7736   -1.6735    0.0000 HA        1 <0>         0.0000
     36 H11         1.7736   -0.8485    0.0000 HC        1 <0>         0.0000
     37 H12         1.7736   -0.8485    0.0000 HC        1 <0>         0.0000
     38 H13         2.4880   -0.4360    0.0000 HA        1 <0>         0.0000
     39 H14         2.4880    0.3890    0.0000 HA        1 <0>         0.0000
     40 H15         1.7736    0.8015    0.0000 HC        1 <0>         0.0000
     41 H16         1.7736    0.8015    0.0000 HC        1 <0>         0.0000
     42 H17         1.7736    1.6265    0.0000 HA        1 <0>         0.0000
     43 H18         1.0591    2.0390    0.0000 HA        1 <0>         0.0000
     44 H19         0.3446    1.6265    0.0000 HC        1 <0>         0.0000
     45 H20         0.3446    1.6265    0.0000 HC        1 <0>         0.0000
     46 H21        -0.3699    2.0390    0.0000 HA        1 <0>         0.0000
     47 H22        -1.0843    1.6265    0.0000 HA        1 <0>         0.0000
     48 H23        -1.0843    0.8015    0.0000 HC        1 <0>         0.0000
     49 H24        -1.0843    0.8015    0.0000 HC        1 <0>         0.0000
     50 H25        -1.7988    0.3890    0.0000 HA        1 <0>         0.0000
     51 H26        -2.5133    0.8015    0.0000 HA        1 <0>         0.0000
     52 H27        -2.5133    1.6265    0.0000 HC        1 <0>         0.0000
     53 H28        -2.5133    1.6265    0.0000 HC        1 <0>         0.0000
     54 H29        -1.7988    2.0390    0.0000 HC        1 <0>         0.0000
     55 H30        -1.7988    2.0390    0.0000 HC        1 <0>         0.0000
     56 H31        -1.7988    2.0390    0.0000 HC        1 <0>         0.0000
     57 H32        -1.0843   -0.8485    0.0000 HO        1 <0>         0.0000
@<TRIPOS>BOND
     1    1    3 1
     2    2    3 2
     3    3    4 1
     4    4    5 1
     5    5    6 1
     6    6    7 1
     7    6   25 1
     8    6   26 1
     9    7    8 2
    10    8    9 1
    11    9   10 2
    12   10   11 1
    13   11   12 1
    14   12   13 2
    15   13   14 1
    16   14   15 1
    17   15   16 2
    18   16   17 1
    19   17   18 1
    20   18   19 2
    21   19   20 1
    22   20   21 1
    23   21   22 2
    24   22   23 1
    25   23   24 1
    26    1   27 1
    27    4   28 1
    28    4   29 1
    29    5   30 1
    30    5   31 1
    31    7   32 1
    32    8   33 1
    33    9   34 1
    34   10   35 1
    35   11   36 1
    36   11   37 1
    37   12   38 1
    38   13   39 1
    39   14   40 1
    40   14   41 1
    41   15   42 1
    42   16   43 1
    43   17   44 1
    44   17   45 1
    45   18   46 1
    46   19   47 1
    47   20   48 1
    48   20   49 1
    49   21   50 1
    50   22   51 1
    51   23   52 1
    52   23   53 1
    53   24   54 1
    54   24   55 1
    55   24   56 1
    56   25   57 1
@<TRIPOS>MOLECULE
4MU
   21    22     0     0     0
SMALL
NO_CHARGES

@<TRIPOS>ATOM
      1 C1         -0.7173   -0.8540    0.0000 CA        1 <0>         0.0000
      2 C2         -1.4317   -0.4415    0.0000 CA        1 <0>         0.0000
      3 C3         -1.4317    0.3835    0.0000 CA        1 <0>         0.0000
      4 C4          1.4262    0.3835    0.0000 C         1 <0>         0.0000
      5 C5          1.4262   -0.4415    0.0000 CA        1 <0>         0.0000
      6 C6          0.7117   -0.8540    0.0000 CA        1 <0>         0.0000
      7 O1          2.1406    0.7960    0.0000 O         1 <0>         0.0000
      8 O2          0.7117    0.7960    0.0000 OS        1 <0>         0.0000
      9 C7          0.7117   -1.6790    0.0000 CT        1 <0>         0.0000
     10 C8         -0.0028   -0.4415    0.0000 CB        1 <0>         0.0000
     11 C9         -0.0028    0.3835    0.0000 CB        1 <0>         0.0000
     12 C10        -0.7173    0.7960    0.0000 CA        1 <0>         0.0000
     13 O3         -2.1462    0.7960    0.0000 OH        1 <0>         0.0000
     14 H1         -0.7173   -0.8540    0.0000 HA        1 <0>         0.0000
     15 H2         -1.4317   -0.4415    0.0000 HA        1 <0>         0.0000
     16 H3          1.4262   -0.4415    0.0000 HA        1 <0>         0.0000
     17 H4          0.7117   -1.6790    0.0000 HC        1 <0>         0.0000
     18 H5          0.7117   -1.6790    0.0000 HC        1 <0>         0.0000
     19 H6          0.7117   -1.6790    0.0000 HC        1 <0>         0.0000
     20 H7         -0.7173    0.7960    0.0000 HA        1 <0>         0.0000
     21 H8         -2.1462    0.7960    0.0000 HO        1 <0>         0.0000
@<TRIPOS>BOND
     1    1    2 ar
     2    1   10 ar
     3    2    3 ar
     4    3   12 ar
     5    3   13 1
     6    4    5 1
     7    4    7 2
     8    4    8 1
     9    5    6 2
    10    6    9 1
    11    6   10 1
    12    8   11 1
    13   10   11 ar
    14   11   12 ar
    15    1   14 1
    16    2   15 1
    17    5   16 1
    18    9   17 1
    19    9   18 1
    20    9   19 1
    21   12   20 1
    22   13   21 1
@<TRIPOS>MOLECULE
5HD
   38    37     0     0     0
SMALL
NO_CHARGES

@<TRIPOS>ATOM
      1 C1         -1.3303   -0.0978    0.0000 CT        1 <0>         0.0000
      2 C2         -2.0447   -0.5103    0.0000 CT        1 <0>         0.0000
      3 C3         -2.7592   -0.0978    0.0000 CT        1 <0>         0.0000
      4 O1          3.6710   -0.5103    0.0000 OH        1 <0>         0.0000
      5 C4          2.9566   -0.0978    0.0000 CT        1 <0>         0.0000
      6 C5          2.2421   -0.5103    0.0000 CT        1 <0>         0.0000
      7 C6          1.5276   -0.0978    0.0000 CT        1 <0>         0.0000
      8 C7          0.8132   -0.5103    0.0000 CT        1 <0>         0.0000
      9 C8          0.0987   -0.0978    0.0000 CT        1 <0>         0.0000
     10 C9          0.0987    0.7272    0.0000 CT        1 <0>         0.0000
     11 C10        -0.6158    1.1397    0.0000 CT        1 <0>         0.0000
     12 O2         -0.6158    1.9647    0.0000 OH        1 <0>         0.0000
     13 C11        -0.6158   -0.5103    0.0000 CT        1 <0>         0.0000
     14 O3         -3.4737   -0.5103    0.0000 OH        1 <0>         0.0000
     15 H1         -1.3303   -0.0978    0.0000 HC        1 <0>         0.0000
     16 H2         -1.3303   -0.0978    0.0000 HC        1 <0>         0.0000
     17 H3         -2.0447   -0.5103    0.0000 HC        1 <0>         0.0000
     18 H4         -2.0447   -0.5103    0.0000 HC        1 <0>         0.0000
     19 H5         -2.7592   -0.0978    0.0000 H1        1 <0>         0.0000
     20 H6         -2.7592   -0.0978    0.0000 H1        1 <0>         0.0000
     21 H7          3.6710   -0.5103    0.0000 HO        1 <0>         0.0000
     22 H8          2.9566   -0.0978    0.0000 H1        1 <0>         0.0000
     23 H9          2.9566   -0.0978    0.0000 H1        1 <0>         0.0000
     24 H10         2.2421   -0.5103    0.0000 HC        1 <0>         0.0000
     25 H11         2.2421   -0.5103    0.0000 HC        1 <0>         0.0000
     26 H12         1.5276   -0.0978    0.0000 HC        1 <0>         0.0000
     27 H13         1.5276   -0.0978    0.0000 HC        1 <0>         0.0000
     28 H14         0.8132   -0.5103    0.0000 HC        1 <0>         0.0000
     29 H15         0.8132   -0.5103    0.0000 HC        1 <0>         0.0000
     30 H16         0.0987   -0.0978    0.0000 HC        1 <0>         0.0000
     31 H17         0.0987    0.7272    0.0000 HC        1 <0>         0.0000
     32 H18         0.0987    0.7272    0.0000 HC        1 <0>         0.0000
     33 H19        -0.6158    1.1397    0.0000 H1        1 <0>         0.0000
     34 H20        -0.6158    1.1397    0.0000 H1        1 <0>         0.0000
     35 H21        -0.6158    1.9647    0.0000 HO        1 <0>         0.0000
     36 H22        -0.6158   -0.5103    0.0000 HC        1 <0>         0.0000
     37 H23        -0.6158   -0.5103    0.0000 HC        1 <0>         0.0000
     38 H24        -3.4737   -0.5103    0.0000 HO        1 <0>         0.0000
@<TRIPOS>BOND
     1    1    2 1
     2    2    3 1
     3    3   14 1
     4    4    5 1
     5    5    6 1
     6    6    7 1
     7    7    8 1
     8    8    9 1
     9    9   13 1
    10    9   10 1
    11   10   11 1
    12   11   12 1
    13    1   13 1
    14    1   15 1
    15    1   16 1
    16    2   17 1
    17    2   18 1
    18    3   19 1
    19    3   20 1
    20    4   21 1
    21    5   22 1
    22    5   23 1
    23    6   24 1
    24    6   25 1
    25    7   26 1
    26    7   27 1
    27    8   28 1
    28    8   29 1
    29    9   30 1
    30   10   31 1
    31   10   32 1
    32   11   33 1
    33   11   34 1
    34   12   35 1
    35   13   36 1
    36   13   37 1
    37   14   38 1
@<TRIPOS>MOLECULE
5HE
   53    52     0     0     0
SMALL
NO_CHARGES

@<TRIPOS>ATOM
      1 C1          0.0043   -0.0440    0.0000 CT        1 <0>         0.0000
      2 C2          0.7188   -0.4565    0.0000 CT        1 <0>         0.0000
      3 C3          1.4332   -0.0440    0.0000 CM        1 <0>         0.0000
      4 C4          1.4332    0.7810    0.0000 CM        1 <0>         0.0000
      5 C5          0.7188    1.1935    0.0000 CT        1 <0>         0.0000
      6 C6          0.7188    2.0185    0.0000 CM        1 <0>         0.0000
      7 C7          0.0043    2.4310    0.0000 CM        1 <0>         0.0000
      8 C8         -0.7102    2.0185    0.0000 CT        1 <0>         0.0000
      9 C9         -1.4247    2.4310    0.0000 CM        1 <0>         0.0000
     10 C10        -2.1391    2.0185    0.0000 CM        1 <0>         0.0000
     11 C11        -2.1391    1.1935    0.0000 CT        1 <0>         0.0000
     12 C12        -2.8536    0.7810    0.0000 CM        1 <0>         0.0000
     13 C13        -2.8536   -0.0440    0.0000 CM        1 <0>         0.0000
     14 C14        -2.1391   -0.4565    0.0000 CM        1 <0>         0.0000
     15 C15        -2.1391   -1.2815    0.0000 CM        1 <0>         0.0000
     16 C16        -1.4247   -1.6940    0.0000 CT        1 <0>         0.0000
     17 C17        -0.7102   -1.2815    0.0000 CT        1 <0>         0.0000
     18 C18         0.0043   -1.6940    0.0000 CT        1 <0>         0.0000
     19 C19         0.7188   -1.2815    0.0000 CT        1 <0>         0.0000
     20 C20         1.4332   -1.6940    0.0000 C         1 <0>         0.0000
     21 O1          2.1477   -1.2815    0.0000 OH        1 <0>         0.0000
     22 O2          1.4332   -2.5190    0.0000 O         1 <0>         0.0000
     23 O3         -1.4247   -2.5190    0.0000 OH        1 <0>         0.0000
     24 H1         -1.4247   -1.1100    0.0000 H1        1 <0>         0.0000
     25 H2          0.0043   -0.0440    0.0000 HC        1 <0>         0.0000
     26 H3          0.0043   -0.0440    0.0000 HC        1 <0>         0.0000
     27 H4          0.0043   -0.0440    0.0000 HC        1 <0>         0.0000
     28 H5          0.7188   -0.4565    0.0000 HC        1 <0>         0.0000
     29 H6          0.7188   -0.4565    0.0000 HC        1 <0>         0.0000
     30 H7          1.4332   -0.0440    0.0000 HA        1 <0>         0.0000
     31 H8          1.4332    0.7810    0.0000 HA        1 <0>         0.0000
     32 H9          0.7188    1.1935    0.0000 HC        1 <0>         0.0000
     33 H10         0.7188    1.1935    0.0000 HC        1 <0>         0.0000
     34 H11         0.7188    2.0185    0.0000 HA        1 <0>         0.0000
     35 H12         0.0043    2.4310    0.0000 HA        1 <0>         0.0000
     36 H13        -0.7102    2.0185    0.0000 HC        1 <0>         0.0000
     37 H14        -0.7102    2.0185    0.0000 HC        1 <0>         0.0000
     38 H15        -1.4247    2.4310    0.0000 HA        1 <0>         0.0000
     39 H16        -2.1391    2.0185    0.0000 HA        1 <0>         0.0000
     40 H17        -2.1391    1.1935    0.0000 HC        1 <0>         0.0000
     41 H18        -2.1391    1.1935    0.0000 HC        1 <0>         0.0000
     42 H19        -2.8536    0.7810    0.0000 HA        1 <0>         0.0000
     43 H20        -2.8536   -0.0440    0.0000 HA        1 <0>         0.0000
     44 H21        -2.1391   -0.4565    0.0000 HA        1 <0>         0.0000
     45 H22        -2.1391   -1.2815    0.0000 HA        1 <0>         0.0000
     46 H23        -0.7102   -1.2815    0.0000 HC        1 <0>         0.0000
     47 H24        -0.7102   -1.2815    0.0000 HC        1 <0>         0.0000
     48 H25         0.0043   -1.6940    0.0000 HC        1 <0>         0.0000
     49 H26         0.0043   -1.6940    0.0000 HC        1 <0>         0.0000
     50 H27         0.7188   -1.2815    0.0000 HC        1 <0>         0.0000
     51 H28         0.7188   -1.2815    0.0000 HC        1 <0>         0.0000
     52 H29         2.1477   -1.2815    0.0000 HO        1 <0>         0.0000
     53 H30        -1.4247   -2.5190    0.0000 HO        1 <0>         0.0000
@<TRIPOS>BOND
     1    1    2 1
     2    2    3 1
     3    3    4 2
     4    4    5 1
     5    5    6 1
     6    6    7 2
     7    7    8 1
     8    8    9 1
     9    9   10 2
    10   10   11 1
    11   11   12 1
    12   12   13 2
    13   13   14 1
    14   14   15 2
    15   15   16 1
    16   16   17 1
    17   16   23 1
    18   16   24 1
    19   17   18 1
    20   18   19 1
    21   19   20 1
    22   20   21 1
    23   20   22 2
    24    1   25 1
    25    1   26 1
    26    1   27 1
    27    2   28 1
    28    2   29 1
    29    3   30 1
    30    4   31 1
    31    5   32 1
    32    5   33 1
    33    6   34 1
    34    7   35 1
    35    8   36 1
    36    8   37 1
    37    9   38 1
    38   10   39 1
    39   11   40 1
    40   11   41 1
    41   12   42 1
    42   13   43 1
    43   14   44 1
    44   15   45 1
    45   17   46 1
    46   17   47 1
    47   18   48 1
    48   18   49 1
    49   19   50 1
    50   19   51 1
    51   21   52 1
    52   23   53 1
@<TRIPOS>MOLECULE
5OP
   55    55     0     0     0
SMALL
NO_CHARGES

@<TRIPOS>ATOM
      1 C1         -5.9248    1.7588    0.0000 CT        1 <0>         0.0000
      2 C2         -5.2103    1.3463    0.0000 CT        1 <0>         0.0000
      3 C3         -4.4959    1.7588    0.0000 CT        1 <0>         0.0000
      4 C4         -3.7814    1.3463    0.0000 CT        1 <0>         0.0000
      5 C5         -3.0669    1.7588    0.0000 CT        1 <0>         0.0000
      6 C6         -2.3525    1.3463    0.0000 C         1 <0>         0.0000
      7 C7         -1.6380    1.7588    0.0000 CM        1 <0>         0.0000
      8 C8         -0.9235    1.3463    0.0000 CM        1 <0>         0.0000
      9 C9         -0.2090    1.7588    0.0000 CT        1 <0>         0.0000
     10 C10        -0.1228    2.5793    0.0000 CT        1 <0>         0.0000
     11 O1         -0.7359    3.1313    0.0000 OH        1 <0>         0.0000
     12 C11         0.6842    2.7508    0.0000 CT        1 <0>         0.0000
     13 C12         1.0967    2.0363    0.0000 C         1 <0>         0.0000
     14 O2          1.9171    1.9501    0.0000 O         1 <0>         0.0000
     15 C13         0.5446    1.4232    0.0000 CT        1 <0>         0.0000
     16 C14         0.7162    0.6163    0.0000 CT        1 <0>         0.0000
     17 C15         1.5008    0.3613    0.0000 CM        1 <0>         0.0000
     18 C16         1.6723   -0.4456    0.0000 CM        1 <0>         0.0000
     19 C17         2.4569   -0.7006    0.0000 CT        1 <0>         0.0000
     20 C18         2.6285   -1.5076    0.0000 CT        1 <0>         0.0000
     21 C19         3.4131   -1.7625    0.0000 CT        1 <0>         0.0000
     22 C20         3.5846   -2.5695    0.0000 C         1 <0>         0.0000
     23 O3          4.3692   -2.8244    0.0000 OH        1 <0>         0.0000
     24 O4         -2.3525    0.5213    0.0000 O         1 <0>         0.0000
     25 O5          2.9715   -3.1215    0.0000 O         1 <0>         0.0000
     26 H1         -0.6988    2.0768    0.0000 HC        1 <0>         0.0000
     27 H2         -0.6680    2.3700    0.0000 H1        1 <0>         0.0000
     28 H3          0.0908    1.0558    0.0000 HC        1 <0>         0.0000
     29 H4         -5.9248    1.7588    0.0000 HC        1 <0>         0.0000
     30 H5         -5.9248    1.7588    0.0000 HC        1 <0>         0.0000
     31 H6         -5.9248    1.7588    0.0000 HC        1 <0>         0.0000
     32 H7         -5.2103    1.3463    0.0000 HC        1 <0>         0.0000
     33 H8         -5.2103    1.3463    0.0000 HC        1 <0>         0.0000
     34 H9         -4.4959    1.7588    0.0000 HC        1 <0>         0.0000
     35 H10        -4.4959    1.7588    0.0000 HC        1 <0>         0.0000
     36 H11        -3.7814    1.3463    0.0000 HC        1 <0>         0.0000
     37 H12        -3.7814    1.3463    0.0000 HC        1 <0>         0.0000
     38 H13        -3.0669    1.7588    0.0000 HC        1 <0>         0.0000
     39 H14        -3.0669    1.7588    0.0000 HC        1 <0>         0.0000
     40 H15        -1.6380    1.7588    0.0000 HA        1 <0>         0.0000
     41 H16        -0.9235    1.3463    0.0000 HA        1 <0>         0.0000
     42 H17        -0.7359    3.1313    0.0000 HO        1 <0>         0.0000
     43 H18         0.6842    2.7508    0.0000 HC        1 <0>         0.0000
     44 H19         0.6842    2.7508    0.0000 HC        1 <0>         0.0000
     45 H20         0.7162    0.6163    0.0000 HC        1 <0>         0.0000
     46 H21         0.7162    0.6163    0.0000 HC        1 <0>         0.0000
     47 H22         1.5008    0.3613    0.0000 HA        1 <0>         0.0000
     48 H23         1.6723   -0.4456    0.0000 HA        1 <0>         0.0000
     49 H24         2.4569   -0.7006    0.0000 HC        1 <0>         0.0000
     50 H25         2.4569   -0.7006    0.0000 HC        1 <0>         0.0000
     51 H26         2.6285   -1.5076    0.0000 HC        1 <0>         0.0000
     52 H27         2.6285   -1.5076    0.0000 HC        1 <0>         0.0000
     53 H28         3.4131   -1.7625    0.0000 HC        1 <0>         0.0000
     54 H29         3.4131   -1.7625    0.0000 HC        1 <0>         0.0000
     55 H30         4.3692   -2.8244    0.0000 HO        1 <0>         0.0000
@<TRIPOS>BOND
     1    1    2 1
     2    2    3 1
     3    3    4 1
     4    4    5 1
     5    5    6 1
     6    6    7 1
     7    6   24 2
     8    7    8 2
     9    8    9 1
    10    9   10 1
    11    9   15 1
    12    9   26 1
    13   10   11 1
    14   10   12 1
    15   10   27 1
    16   12   13 1
    17   13   14 2
    18   13   15 1
    19   15   16 1
    20   15   28 1
    21   16   17 1
    22   17   18 2
    23   18   19 1
    24   19   20 1
    25   20   21 1
    26   21   22 1
    27   22   23 1
    28   22   25 2
    29    1   29 1
    30    1   30 1
    31    1   31 1
    32    2   32 1
    33    2   33 1
    34    3   34 1
    35    3   35 1
    36    4   36 1
    37    4   37 1
    38    5   38 1
    39    5   39 1
    40    7   40 1
    41    8   41 1
    42   11   42 1
    43   12   43 1
    44   12   44 1
    45   16   45 1
    46   16   46 1
    47   17   47 1
    48   18   48 1
    49   19   49 1
    50   19   50 1
    51   20   51 1
    52   20   52 1
    53   21   53 1
    54   21   54 1
    55   23   55 1
@<TRIPOS>MOLECULE
5PP
   39    40     0     0     0
SMALL
NO_CHARGES

@<TRIPOS>ATOM
      1 O1          0.1320   -2.0410    0.0000 OH        1 <0>         0.0000
      2 C1          0.1320   -1.2160    0.0000 CA        1 <0>         0.0000
      3 C2         -0.5825   -0.8035    0.0000 CA        1 <0>         0.0000
      4 O2         -1.2970   -1.2160    0.0000 OS        1 <0>         0.0000
      5 C3         -2.0114   -0.8035    0.0000 CA        1 <0>         0.0000
      6 C4         -2.7259   -1.2160    0.0000 CA        1 <0>         0.0000
      7 C5         -3.4404   -0.8035    0.0000 CA        1 <0>         0.0000
      8 C6         -3.4404    0.0215    0.0000 CA        1 <0>         0.0000
      9 C7         -2.7259    0.4340    0.0000 CA        1 <0>         0.0000
     10 C8         -2.0114    0.0215    0.0000 CA        1 <0>         0.0000
     11 C9         -0.5825    0.0215    0.0000 CA        1 <0>         0.0000
     12 C10         0.1320    0.4340    0.0000 CA        1 <0>         0.0000
     13 C11         0.8464    0.0215    0.0000 CA        1 <0>         0.0000
     14 C12         0.8464   -0.8035    0.0000 CA        1 <0>         0.0000
     15 C13         1.5609    0.4340    0.0000 CT        1 <0>         0.0000
     16 C14         2.2754    0.0215    0.0000 CT        1 <0>         0.0000
     17 C15         2.9899    0.4340    0.0000 CT        1 <0>         0.0000
     18 C16         3.7043    0.0215    0.0000 CT        1 <0>         0.0000
     19 C17         4.4188    0.4340    0.0000 CT        1 <0>         0.0000
     20 H1          0.1320   -2.0410    0.0000 HO        1 <0>         0.0000
     21 H2         -2.7259   -1.2160    0.0000 HA        1 <0>         0.0000
     22 H3         -3.4404   -0.8035    0.0000 HA        1 <0>         0.0000
     23 H4         -3.4404    0.0215    0.0000 HA        1 <0>         0.0000
     24 H5         -2.7259    0.4340    0.0000 HA        1 <0>         0.0000
     25 H6         -2.0114    0.0215    0.0000 HA        1 <0>         0.0000
     26 H7         -0.5825    0.0215    0.0000 HA        1 <0>         0.0000
     27 H8          0.1320    0.4340    0.0000 HA        1 <0>         0.0000
     28 H9          0.8464   -0.8035    0.0000 HA        1 <0>         0.0000
     29 H10         1.5609    0.4340    0.0000 HC        1 <0>         0.0000
     30 H11         1.5609    0.4340    0.0000 HC        1 <0>         0.0000
     31 H12         2.2754    0.0215    0.0000 HC        1 <0>         0.0000
     32 H13         2.2754    0.0215    0.0000 HC        1 <0>         0.0000
     33 H14         2.9899    0.4340    0.0000 HC        1 <0>         0.0000
     34 H15         2.9899    0.4340    0.0000 HC        1 <0>         0.0000
     35 H16         3.7043    0.0215    0.0000 HC        1 <0>         0.0000
     36 H17         3.7043    0.0215    0.0000 HC        1 <0>         0.0000
     37 H18         4.4188    0.4340    0.0000 HC        1 <0>         0.0000
     38 H19         4.4188    0.4340    0.0000 HC        1 <0>         0.0000
     39 H20         4.4188    0.4340    0.0000 HC        1 <0>         0.0000
@<TRIPOS>BOND
     1    1    2 1
     2    2    3 ar
     3    2   14 ar
     4    3    4 1
     5    3   11 ar
     6    4    5 1
     7    5    6 ar
     8    5   10 ar
     9    6    7 ar
    10    7    8 ar
    11    8    9 ar
    12    9   10 ar
    13   11   12 ar
    14   12   13 ar
    15   13   14 ar
    16   13   15 1
    17   15   16 1
    18   16   17 1
    19   17   18 1
    20   18   19 1
    21    1   20 1
    22    6   21 1
    23    7   22 1
    24    8   23 1
    25    9   24 1
    26   10   25 1
    27   11   26 1
    28   12   27 1
    29   14   28 1
    30   15   29 1
    31   15   30 1
    32   16   31 1
    33   16   32 1
    34   17   33 1
    35   17   34 1
    36   18   35 1
    37   18   36 1
    38   19   37 1
    39   19   38 1
    40   19   39 1
@<TRIPOS>MOLECULE
689
   45    47     0     0     0
SMALL
NO_CHARGES

@<TRIPOS>ATOM
      1 C1          1.1084    1.3350    0.0000 CT        1 <0>         0.0000
      2 C2          0.7105    0.5492    0.0000 CT        1 <0>         0.0000
      3 C3          0.1607    0.1132    0.0000 CT        1 <0>         0.0000
      4 C4         -0.5933   -0.0525    0.0000 CM        1 <0>         0.0000
      5 C5         -0.8768    0.8605    0.0000 CT        1 <0>         0.0000
      6 C6         -0.8852   -0.6894    0.0000 CM        1 <0>         0.0000
      7 C7         -0.3807   -0.2651    0.0000 CT        1 <0>         0.0000
      8 C8         -0.0998    0.6714    0.0000 CT        1 <0>         0.0000
      9 C9          0.5793   -0.2544    0.0000 CT        1 <0>         0.0000
     10 C10         1.4811    0.0719    0.0000 CT        1 <0>         0.0000
     11 O1          2.2486    0.0923    0.0000 OH        1 <0>         0.0000
     12 C11         0.6263   -1.2413    0.0000 CT        1 <0>         0.0000
     13 O2         -0.1900   -1.4208    0.0000 OS        1 <0>         0.0000
     14 C12         0.2221   -0.8399    0.0000 CT        1 <0>         0.0000
     15 C13        -0.5716   -0.6148    0.0000 CA        1 <0>         0.0000
     16 C14        -1.1633   -1.1896    0.0000 CA        1 <0>         0.0000
     17 C15        -1.9570   -0.9645    0.0000 CA        1 <0>         0.0000
     18 C16        -2.1590   -0.1646    0.0000 CA        1 <0>         0.0000
     19 O3         -2.9527    0.0605    0.0000 OH        1 <0>         0.0000
     20 C17        -1.5672    0.4102    0.0000 CA        1 <0>         0.0000
     21 C18        -0.7735    0.1851    0.0000 CA        1 <0>         0.0000
     22 H1          0.4117    1.0509    0.0000 HC        1 <0>         0.0000
     23 H2          0.7296    0.2450    0.0000 HC        1 <0>         0.0000
     24 H3         -0.8686    0.0556    0.0000 HC        1 <0>         0.0000
     25 H4         -0.2780   -0.5385    0.0000 H1        1 <0>         0.0000
     26 H5          1.1084    1.3350    0.0000 HC        1 <0>         0.0000
     27 H6          1.1084    1.3350    0.0000 HC        1 <0>         0.0000
     28 H7          1.1084    1.3350    0.0000 HC        1 <0>         0.0000
     29 H8         -0.8768    0.8605    0.0000 HC        1 <0>         0.0000
     30 H9         -0.8768    0.8605    0.0000 HC        1 <0>         0.0000
     31 H10        -0.8768    0.8605    0.0000 HC        1 <0>         0.0000
     32 H11        -0.8852   -0.6894    0.0000 HA        1 <0>         0.0000
     33 H12        -0.0998    0.6714    0.0000 HC        1 <0>         0.0000
     34 H13        -0.0998    0.6714    0.0000 HC        1 <0>         0.0000
     35 H14        -0.0998    0.6714    0.0000 HC        1 <0>         0.0000
     36 H15         1.4811    0.0719    0.0000 H1        1 <0>         0.0000
     37 H16         1.4811    0.0719    0.0000 H1        1 <0>         0.0000
     38 H17         2.2486    0.0923    0.0000 HO        1 <0>         0.0000
     39 H18         0.6263   -1.2413    0.0000 H1        1 <0>         0.0000
     40 H19         0.6263   -1.2413    0.0000 H1        1 <0>         0.0000
     41 H20        -1.1633   -1.1896    0.0000 HA        1 <0>         0.0000
     42 H21        -1.9570   -0.9645    0.0000 HA        1 <0>         0.0000
     43 H22        -2.9527    0.0605    0.0000 HO        1 <0>         0.0000
     44 H23        -1.5672    0.4102    0.0000 HA        1 <0>         0.0000
     45 H24        -0.7735    0.1851    0.0000 HA        1 <0>         0.0000
@<TRIPOS>BOND
     1    1    2 1
     2    2    3 1
     3    2    9 1
     4    2   22 1
     5    3    4 1
     6    3   14 1
     7    3   23 1
     8    4    5 1
     9    4    6 2
    10    6    7 1
    11    7    8 1
    12    7    9 1
    13    7   24 1
    14    9   10 1
    15    9   12 1
    16   10   11 1
    17   12   13 1
    18   13   14 1
    19   14   15 1
    20   14   25 1
    21   15   16 ar
    22   15   21 ar
    23   16   17 ar
    24   17   18 ar
    25   18   19 1
    26   18   20 ar
    27   20   21 ar
    28    1   26 1
    29    1   27 1
    30    1   28 1
    31    5   29 1
    32    5   30 1
    33    5   31 1
    34    6   32 1
    35    8   33 1
    36    8   34 1
    37    8   35 1
    38   10   36 1
    39   10   37 1
    40   11   38 1
    41   12   39 1
    42   12   40 1
    43   16   41 1
    44   17   42 1
    45   19   43 1
    46   20   44 1
    47   21   45 1
@<TRIPOS>MOLECULE
6OB
   52    51     0     0     0
SMALL
NO_CHARGES

@<TRIPOS>ATOM
      1 C1         -0.3713   -0.5223    0.0000 CT        1 <0>         0.0000
      2 C2         -5.3726   -1.7598    0.0000 CT        1 <0>         0.0000
      3 C3         -4.6581   -2.1723    0.0000 CT        1 <0>         0.0000
      4 C4         -3.9437   -1.7598    0.0000 CT        1 <0>         0.0000
      5 C5         -3.2292   -2.1723    0.0000 CT        1 <0>         0.0000
      6 C6         -2.5147   -1.7598    0.0000 CT        1 <0>         0.0000
      7 C7         -1.8002   -2.1723    0.0000 CM        1 <0>         0.0000
      8 C8         -1.0858   -1.7598    0.0000 CM        1 <0>         0.0000
      9 C9         -1.0858   -0.9348    0.0000 CT        1 <0>         0.0000
     10 C10        -0.3713    0.3027    0.0000 CM        1 <0>         0.0000
     11 C11         0.3432    0.7152    0.0000 CM        1 <0>         0.0000
     12 C12         0.3432    1.5402    0.0000 CT        1 <0>         0.0000
     13 C13         1.0576    1.9527    0.0000 C         1 <0>         0.0000
     14 O1          1.0576    2.7777    0.0000 O         1 <0>         0.0000
     15 C14         1.7721    1.5402    0.0000 CT        1 <0>         0.0000
     16 C15         2.4866    1.9527    0.0000 CT        1 <0>         0.0000
     17 C16         3.2011    1.5402    0.0000 CT        1 <0>         0.0000
     18 C17         3.9155    1.9527    0.0000 CT        1 <0>         0.0000
     19 C18         4.6300    1.5402    0.0000 C         1 <0>         0.0000
     20 O2          5.3445    1.9527    0.0000 O         1 <0>         0.0000
     21 O3          4.6300    0.7152    0.0000 OH        1 <0>         0.0000
     22 O4          0.3432   -0.9348    0.0000 OH        1 <0>         0.0000
     23 H1         -0.8770   -0.2304    0.0000 H1        1 <0>         0.0000
     24 H2         -5.3726   -1.7598    0.0000 HC        1 <0>         0.0000
     25 H3         -5.3726   -1.7598    0.0000 HC        1 <0>         0.0000
     26 H4         -5.3726   -1.7598    0.0000 HC        1 <0>         0.0000
     27 H5         -4.6581   -2.1723    0.0000 HC        1 <0>         0.0000
     28 H6         -4.6581   -2.1723    0.0000 HC        1 <0>         0.0000
     29 H7         -3.9437   -1.7598    0.0000 HC        1 <0>         0.0000
     30 H8         -3.9437   -1.7598    0.0000 HC        1 <0>         0.0000
     31 H9         -3.2292   -2.1723    0.0000 HC        1 <0>         0.0000
     32 H10        -3.2292   -2.1723    0.0000 HC        1 <0>         0.0000
     33 H11        -2.5147   -1.7598    0.0000 HC        1 <0>         0.0000
     34 H12        -2.5147   -1.7598    0.0000 HC        1 <0>         0.0000
     35 H13        -1.8002   -2.1723    0.0000 HA        1 <0>         0.0000
     36 H14        -1.0858   -1.7598    0.0000 HA        1 <0>         0.0000
     37 H15        -1.0858   -0.9348    0.0000 HC        1 <0>         0.0000
     38 H16        -1.0858   -0.9348    0.0000 HC        1 <0>         0.0000
     39 H17        -0.3713    0.3027    0.0000 HA        1 <0>         0.0000
     40 H18         0.3432    0.7152    0.0000 HA        1 <0>         0.0000
     41 H19         0.3432    1.5402    0.0000 HC        1 <0>         0.0000
     42 H20         0.3432    1.5402    0.0000 HC        1 <0>         0.0000
     43 H21         1.7721    1.5402    0.0000 HC        1 <0>         0.0000
     44 H22         1.7721    1.5402    0.0000 HC        1 <0>         0.0000
     45 H23         2.4866    1.9527    0.0000 HC        1 <0>         0.0000
     46 H24         2.4866    1.9527    0.0000 HC        1 <0>         0.0000
     47 H25         3.2011    1.5402    0.0000 HC        1 <0>         0.0000
     48 H26         3.2011    1.5402    0.0000 HC        1 <0>         0.0000
     49 H27         3.9155    1.9527    0.0000 HC        1 <0>         0.0000
     50 H28         3.9155    1.9527    0.0000 HC        1 <0>         0.0000
     51 H29         4.6300    0.7152    0.0000 HO        1 <0>         0.0000
     52 H30         0.3432   -0.9348    0.0000 HO        1 <0>         0.0000
@<TRIPOS>BOND
     1    1    9 1
     2    1   10 1
     3    1   23 1
     4    2    3 1
     5    3    4 1
     6    4    5 1
     7    5    6 1
     8    6    7 1
     9    7    8 2
    10    8    9 1
    11   10   11 2
    12   11   12 1
    13   12   13 1
    14   13   14 2
    15   13   15 1
    16   15   16 1
    17   16   17 1
    18   17   18 1
    19   18   19 1
    20   19   20 2
    21   19   21 1
    22    1   22 1
    23    2   24 1
    24    2   25 1
    25    2   26 1
    26    3   27 1
    27    3   28 1
    28    4   29 1
    29    4   30 1
    30    5   31 1
    31    5   32 1
    32    6   33 1
    33    6   34 1
    34    7   35 1
    35    8   36 1
    36    9   37 1
    37    9   38 1
    38   10   39 1
    39   11   40 1
    40   12   41 1
    41   12   42 1
    42   15   43 1
    43   15   44 1
    44   16   45 1
    45   16   46 1
    46   17   47 1
    47   17   48 1
    48   18   49 1
    49   18   50 1
    50   21   51 1
    51   22   52 1
@<TRIPOS>MOLECULE
6OC
   52    51     0     0     0
SMALL
NO_CHARGES

@<TRIPOS>ATOM
      1 C1         -1.0981    3.8276    0.0000 CT        1 <0>         0.0000
      2 C2         -1.8126    3.4151    0.0000 CT        1 <0>         0.0000
      3 C3         -1.8126    2.5901    0.0000 CT        1 <0>         0.0000
      4 C4         -2.5271    2.1776    0.0000 CT        1 <0>         0.0000
      5 C5         -2.5271    1.3526    0.0000 CT        1 <0>         0.0000
      6 C6         -3.2415    0.9401    0.0000 CM        1 <0>         0.0000
      7 C7         -3.2415    0.1151    0.0000 CM        1 <0>         0.0000
      8 C8         -2.5271   -0.2974    0.0000 CT        1 <0>         0.0000
      9 C9         -2.5271   -1.1224    0.0000 CM        1 <0>         0.0000
     10 C10        -1.8126   -1.5349    0.0000 CM        1 <0>         0.0000
     11 C11        -1.0981   -1.1224    0.0000 CT        1 <0>         0.0000
     12 C12        -0.3836   -1.5349    0.0000 CT        1 <0>         0.0000
     13 C13         0.3308   -1.1224    0.0000 C         1 <0>         0.0000
     14 O1          0.3308   -0.2974    0.0000 O         1 <0>         0.0000
     15 C14         1.0453   -1.5349    0.0000 CT        1 <0>         0.0000
     16 C15         1.7598   -1.1224    0.0000 CT        1 <0>         0.0000
     17 C16         2.4742   -1.5349    0.0000 CT        1 <0>         0.0000
     18 C17         3.1887   -1.1224    0.0000 CT        1 <0>         0.0000
     19 C18         3.9032   -1.5349    0.0000 C         1 <0>         0.0000
     20 O2          4.6177   -1.1224    0.0000 O         1 <0>         0.0000
     21 O3          3.9032   -2.3599    0.0000 OH        1 <0>         0.0000
     22 O4         -1.0981   -0.2974    0.0000 OH        1 <0>         0.0000
     23 H1         -1.0981   -1.7063    0.0000 H1        1 <0>         0.0000
     24 H2         -1.0981    3.8276    0.0000 HC        1 <0>         0.0000
     25 H3         -1.0981    3.8276    0.0000 HC        1 <0>         0.0000
     26 H4         -1.0981    3.8276    0.0000 HC        1 <0>         0.0000
     27 H5         -1.8126    3.4151    0.0000 HC        1 <0>         0.0000
     28 H6         -1.8126    3.4151    0.0000 HC        1 <0>         0.0000
     29 H7         -1.8126    2.5901    0.0000 HC        1 <0>         0.0000
     30 H8         -1.8126    2.5901    0.0000 HC        1 <0>         0.0000
     31 H9         -2.5271    2.1776    0.0000 HC        1 <0>         0.0000
     32 H10        -2.5271    2.1776    0.0000 HC        1 <0>         0.0000
     33 H11        -2.5271    1.3526    0.0000 HC        1 <0>         0.0000
     34 H12        -2.5271    1.3526    0.0000 HC        1 <0>         0.0000
     35 H13        -3.2415    0.9401    0.0000 HA        1 <0>         0.0000
     36 H14        -3.2415    0.1151    0.0000 HA        1 <0>         0.0000
     37 H15        -2.5271   -0.2974    0.0000 HC        1 <0>         0.0000
     38 H16        -2.5271   -0.2974    0.0000 HC        1 <0>         0.0000
     39 H17        -2.5271   -1.1224    0.0000 HA        1 <0>         0.0000
     40 H18        -1.8126   -1.5349    0.0000 HA        1 <0>         0.0000
     41 H19        -0.3836   -1.5349    0.0000 HC        1 <0>         0.0000
     42 H20        -0.3836   -1.5349    0.0000 HC        1 <0>         0.0000
     43 H21         1.0453   -1.5349    0.0000 HC        1 <0>         0.0000
     44 H22         1.0453   -1.5349    0.0000 HC        1 <0>         0.0000
     45 H23         1.7598   -1.1224    0.0000 HC        1 <0>         0.0000
     46 H24         1.7598   -1.1224    0.0000 HC        1 <0>         0.0000
     47 H25         2.4742   -1.5349    0.0000 HC        1 <0>         0.0000
     48 H26         2.4742   -1.5349    0.0000 HC        1 <0>         0.0000
     49 H27         3.1887   -1.1224    0.0000 HC        1 <0>         0.0000
     50 H28         3.1887   -1.1224    0.0000 HC        1 <0>         0.0000
     51 H29         3.9032   -2.3599    0.0000 HO        1 <0>         0.0000
     52 H30        -1.0981   -0.2974    0.0000 HO        1 <0>         0.0000
@<TRIPOS>BOND
     1    1    2 1
     2    2    3 1
     3    3    4 1
     4    4    5 1
     5    5    6 1
     6    6    7 2
     7    7    8 1
     8    8    9 1
     9    9   10 2
    10   10   11 1
    11   11   12 1
    12   11   23 1
    13   12   13 1
    14   13   14 2
    15   13   15 1
    16   15   16 1
    17   16   17 1
    18   17   18 1
    19   18   19 1
    20   19   20 2
    21   19   21 1
    22   11   22 1
    23    1   24 1
    24    1   25 1
    25    1   26 1
    26    2   27 1
    27    2   28 1
    28    3   29 1
    29    3   30 1
    30    4   31 1
    31    4   32 1
    32    5   33 1
    33    5   34 1
    34    6   35 1
    35    7   36 1
    36    8   37 1
    37    8   38 1
    38    9   39 1
    39   10   40 1
    40   12   41 1
    41   12   42 1
    42   15   43 1
    43   15   44 1
    44   16   45 1
    45   16   46 1
    46   17   47 1
    47   17   48 1
    48   18   49 1
    49   18   50 1
    50   21   51 1
    51   22   52 1
@<TRIPOS>MOLECULE
*****
   53    52     0     0     0
SMALL
NO_CHARGES

@<TRIPOS>ATOM
      1 O1         20.4994  -18.0767    0.0000 OH        1 <0>         0.0000
      2 O2         26.9298  -16.8392    0.0000 OH        1 <0>         0.0000
      3 O3         26.2153  -18.0767    0.0000 O         1 <0>         0.0000
      4 C1         22.6428  -16.8392    0.0000 CT        1 <0>         0.0000
      5 C2         23.3573  -17.2517    0.0000 CT        1 <0>         0.0000
      6 C3         21.9283  -17.2517    0.0000 CT        1 <0>         0.0000
      7 C4         24.0718  -16.8392    0.0000 CT        1 <0>         0.0000
      8 C5         21.2139  -16.8392    0.0000 CT        1 <0>         0.0000
      9 C6         24.7863  -17.2517    0.0000 CT        1 <0>         0.0000
     10 C7         20.4994  -17.2517    0.0000 CT        1 <0>         0.0000
     11 C8         25.5007  -16.8392    0.0000 CT        1 <0>         0.0000
     12 C9         19.7848  -16.8392    0.0000 CM        1 <0>         0.0000
     13 C10        16.9269  -18.4892    0.0000 CT        1 <0>         0.0000
     14 C11        16.9269  -19.3142    0.0000 CT        1 <0>         0.0000
     15 C12        17.6415  -18.0767    0.0000 CT        1 <0>         0.0000
     16 C13        16.2124  -19.7267    0.0000 CT        1 <0>         0.0000
     17 C14        19.0704  -17.2517    0.0000 CM        1 <0>         0.0000
     18 C15        26.2153  -17.2517    0.0000 C         1 <0>         0.0000
     19 C16        17.6415  -17.2517    0.0000 CM        1 <0>         0.0000
     20 C17        18.3559  -16.8392    0.0000 CM        1 <0>         0.0000
     21 C18        16.2124  -20.5517    0.0000 CT        1 <0>         0.0000
     22 H1         20.4994  -18.0767    0.0000 HO        1 <0>         0.0000
     23 H2         26.9298  -16.8392    0.0000 HO        1 <0>         0.0000
     24 H3         22.6428  -16.8392    0.0000 HC        1 <0>         0.0000
     25 H4         22.6428  -16.8392    0.0000 HC        1 <0>         0.0000
     26 H5         23.3573  -17.2517    0.0000 HC        1 <0>         0.0000
     27 H6         23.3573  -17.2517    0.0000 HC        1 <0>         0.0000
     28 H7         21.9283  -17.2517    0.0000 HC        1 <0>         0.0000
     29 H8         21.9283  -17.2517    0.0000 HC        1 <0>         0.0000
     30 H9         24.0718  -16.8392    0.0000 HC        1 <0>         0.0000
     31 H10        24.0718  -16.8392    0.0000 HC        1 <0>         0.0000
     32 H11        21.2139  -16.8392    0.0000 HC        1 <0>         0.0000
     33 H12        21.2139  -16.8392    0.0000 HC        1 <0>         0.0000
     34 H13        24.7863  -17.2517    0.0000 HC        1 <0>         0.0000
     35 H14        24.7863  -17.2517    0.0000 HC        1 <0>         0.0000
     36 H15        20.4994  -17.2517    0.0000 H1        1 <0>         0.0000
     37 H16        25.5007  -16.8392    0.0000 HC        1 <0>         0.0000
     38 H17        25.5007  -16.8392    0.0000 HC        1 <0>         0.0000
     39 H18        19.7848  -16.8392    0.0000 HA        1 <0>         0.0000
     40 H19        16.9269  -18.4892    0.0000 HC        1 <0>         0.0000
     41 H20        16.9269  -18.4892    0.0000 HC        1 <0>         0.0000
     42 H21        16.9269  -19.3142    0.0000 HC        1 <0>         0.0000
     43 H22        16.9269  -19.3142    0.0000 HC        1 <0>         0.0000
     44 H23        17.6415  -18.0767    0.0000 HC        1 <0>         0.0000
     45 H24        17.6415  -18.0767    0.0000 HC        1 <0>         0.0000
     46 H25        16.2124  -19.7267    0.0000 HC        1 <0>         0.0000
     47 H26        16.2124  -19.7267    0.0000 HC        1 <0>         0.0000
     48 H27        19.0704  -17.2517    0.0000 HA        1 <0>         0.0000
     49 H28        17.6415  -17.2517    0.0000 HA        1 <0>         0.0000
     50 H29        18.3559  -16.8392    0.0000 HA        1 <0>         0.0000
     51 H30        16.2124  -20.5517    0.0000 HC        1 <0>         0.0000
     52 H31        16.2124  -20.5517    0.0000 HC        1 <0>         0.0000
     53 H32        16.2124  -20.5517    0.0000 HC        1 <0>         0.0000
@<TRIPOS>BOND
     1    1   10 1
     2    2   18 1
     3    3   18 2
     4    4    5 1
     5    4    6 1
     6    5    7 1
     7    6    8 1
     8    7    9 1
     9    8   10 1
    10    9   11 1
    11   10   12 1
    12   11   18 1
    13   12   17 2
    14   13   14 1
    15   13   15 1
    16   14   16 1
    17   15   19 1
    18   16   21 1
    19   17   20 1
    20   19   20 2
    21    1   22 1
    22    2   23 1
    23    4   24 1
    24    4   25 1
    25    5   26 1
    26    5   27 1
    27    6   28 1
    28    6   29 1
    29    7   30 1
    30    7   31 1
    31    8   32 1
    32    8   33 1
    33    9   34 1
    34    9   35 1
    35   10   36 1
    36   11   37 1
    37   11   38 1
    38   12   39 1
    39   13   40 1
    40   13   41 1
    41   14   42 1
    42   14   43 1
    43   15   44 1
    44   15   45 1
    45   16   46 1
    46   16   47 1
    47   17   48 1
    48   19   49 1
    49   20   50 1
    50   21   51 1
    51   21   52 1
    52   21   53 1
@<TRIPOS>MOLECULE
AE4
   44    43     0     0     0
SMALL
NO_CHARGES

@<TRIPOS>ATOM
      1 C1         -6.0308   -0.2063    0.0000 CT        1 <0>         0.0000
      2 C2         -5.3163    0.2062    0.0000 CT        1 <0>         0.0000
      3 O1         -4.6017   -0.2063    0.0000 OS        1 <0>         0.0000
      4 C3         -3.8872    0.2062    0.0000 CT        1 <0>         0.0000
      5 C4         -3.1727   -0.2063    0.0000 CT        1 <0>         0.0000
      6 O2         -2.4582    0.2062    0.0000 OS        1 <0>         0.0000
      7 C5         -1.7436   -0.2063    0.0000 CT        1 <0>         0.0000
      8 C6         -1.0292    0.2062    0.0000 CT        1 <0>         0.0000
      9 C7          0.3999    0.2062    0.0000 CT        1 <0>         0.0000
     10 O3         -0.3146   -0.2063    0.0000 OS        1 <0>         0.0000
     11 C8          1.1145   -0.2063    0.0000 CT        1 <0>         0.0000
     12 O4          1.8289    0.2062    0.0000 OS        1 <0>         0.0000
     13 C9          2.5435   -0.2063    0.0000 CT        1 <0>         0.0000
     14 C10         3.2580    0.2062    0.0000 CT        1 <0>         0.0000
     15 O5          3.9725   -0.2063    0.0000 OS        1 <0>         0.0000
     16 C11         4.6870    0.2062    0.0000 CT        1 <0>         0.0000
     17 C12         5.4016   -0.2063    0.0000 CT        1 <0>         0.0000
     18 O6          6.1162    0.2062    0.0000 OH        1 <0>         0.0000
     19 H1         -6.0308   -0.2063    0.0000 HC        1 <0>         0.0000
     20 H2         -6.0308   -0.2063    0.0000 HC        1 <0>         0.0000
     21 H3         -6.0308   -0.2063    0.0000 HC        1 <0>         0.0000
     22 H4         -5.3163    0.2062    0.0000 H1        1 <0>         0.0000
     23 H5         -5.3163    0.2062    0.0000 H1        1 <0>         0.0000
     24 H6         -3.8872    0.2062    0.0000 H1        1 <0>         0.0000
     25 H7         -3.8872    0.2062    0.0000 H1        1 <0>         0.0000
     26 H8         -3.1727   -0.2063    0.0000 H1        1 <0>         0.0000
     27 H9         -3.1727   -0.2063    0.0000 H1        1 <0>         0.0000
     28 H10        -1.7436   -0.2063    0.0000 H1        1 <0>         0.0000
     29 H11        -1.7436   -0.2063    0.0000 H1        1 <0>         0.0000
     30 H12        -1.0292    0.2062    0.0000 H1        1 <0>         0.0000
     31 H13        -1.0292    0.2062    0.0000 H1        1 <0>         0.0000
     32 H14         0.3999    0.2062    0.0000 H1        1 <0>         0.0000
     33 H15         0.3999    0.2062    0.0000 H1        1 <0>         0.0000
     34 H16         1.1145   -0.2063    0.0000 H1        1 <0>         0.0000
     35 H17         1.1145   -0.2063    0.0000 H1        1 <0>         0.0000
     36 H18         2.5435   -0.2063    0.0000 H1        1 <0>         0.0000
     37 H19         2.5435   -0.2063    0.0000 H1        1 <0>         0.0000
     38 H20         3.2580    0.2062    0.0000 H1        1 <0>         0.0000
     39 H21         3.2580    0.2062    0.0000 H1        1 <0>         0.0000
     40 H22         4.6870    0.2062    0.0000 H1        1 <0>         0.0000
     41 H23         4.6870    0.2062    0.0000 H1        1 <0>         0.0000
     42 H24         5.4016   -0.2063    0.0000 H1        1 <0>         0.0000
     43 H25         5.4016   -0.2063    0.0000 H1        1 <0>         0.0000
     44 H26         6.1162    0.2062    0.0000 HO        1 <0>         0.0000
@<TRIPOS>BOND
     1    1    2 1
     2    2    3 1
     3    3    4 1
     4    4    5 1
     5    5    6 1
     6    6    7 1
     7    7    8 1
     8    8   10 1
     9    9   10 1
    10    9   11 1
    11   11   12 1
    12   12   13 1
    13   13   14 1
    14   14   15 1
    15   15   16 1
    16   16   17 1
    17   17   18 1
    18    1   19 1
    19    1   20 1
    20    1   21 1
    21    2   22 1
    22    2   23 1
    23    4   24 1
    24    4   25 1
    25    5   26 1
    26    5   27 1
    27    7   28 1
    28    7   29 1
    29    8   30 1
    30    8   31 1
    31    9   32 1
    32    9   33 1
    33   11   34 1
    34   11   35 1
    35   13   36 1
    36   13   37 1
    37   14   38 1
    38   14   39 1
    39   16   40 1
    40   16   41 1
    41   17   42 1
    42   17   43 1
    43   18   44 1
@<TRIPOS>MOLECULE
AFB
   44    45     0     0     0
SMALL
NO_CHARGES

@<TRIPOS>ATOM
      1 O1         -2.2885   -0.5103    0.0000 OH        1 <0>         0.0000
      2 C1         -1.4873   -0.7069    0.0000 CT        1 <0>         0.0000
      3 C2         -0.8572   -0.1743    0.0000 CT        1 <0>         0.0000
      4 C3         -1.1754   -1.4707    0.0000 CT        1 <0>         0.0000
      5 C4         -0.3527   -1.4101    0.0000 CT        1 <0>         0.0000
      6 C5         -0.1560   -0.6089    0.0000 CT        1 <0>         0.0000
      7 C6          0.6362   -0.3786    0.0000 CM        1 <0>         0.0000
      8 C7          0.8329    0.4226    0.0000 CM        1 <0>         0.0000
      9 C8          1.6251    0.6529    0.0000 CT        1 <0>         0.0000
     10 C9          2.3033    0.0570    0.0000 CT        1 <0>         0.0000
     11 C10         3.1279    0.0313    0.0000 CT        1 <0>         0.0000
     12 C11         3.3582   -0.7610    0.0000 CT        1 <0>         0.0000
     13 C12         4.1345   -1.0403    0.0000 CT        1 <0>         0.0000
     14 O2          2.6759   -1.2248    0.0000 OS        1 <0>         0.0000
     15 C13         2.4229   -2.0914    0.0000 C         1 <0>         0.0000
     16 O3          3.0059   -2.6751    0.0000 O         1 <0>         0.0000
     17 C14         1.6306   -2.3217    0.0000 CM        1 <0>         0.0000
     18 C15         1.0351   -1.7508    0.0000 CM        1 <0>         0.0000
     19 C16         0.2429   -1.9811    0.0000 CT        1 <0>         0.0000
     20 O4          0.0462   -2.7823    0.0000 OH        1 <0>         0.0000
     21 H1         -1.6207   -0.1384    0.0000 H1        1 <0>         0.0000
     22 H2         -0.5504   -1.9596    0.0000 HC        1 <0>         0.0000
     23 H3         -0.0768   -0.0304    0.0000 HC        1 <0>         0.0000
     24 H4          3.7838   -0.3612    0.0000 H1        1 <0>         0.0000
     25 H5         -0.3178   -2.1441    0.0000 H1        1 <0>         0.0000
     26 H6         -2.2885   -0.5103    0.0000 HO        1 <0>         0.0000
     27 H7         -0.8572   -0.1743    0.0000 HC        1 <0>         0.0000
     28 H8         -0.8572   -0.1743    0.0000 HC        1 <0>         0.0000
     29 H9         -1.1754   -1.4707    0.0000 HC        1 <0>         0.0000
     30 H10        -1.1754   -1.4707    0.0000 HC        1 <0>         0.0000
     31 H11         0.6362   -0.3786    0.0000 HA        1 <0>         0.0000
     32 H12         0.8329    0.4226    0.0000 HA        1 <0>         0.0000
     33 H13         1.6251    0.6529    0.0000 HC        1 <0>         0.0000
     34 H14         1.6251    0.6529    0.0000 HC        1 <0>         0.0000
     35 H15         2.3033    0.0570    0.0000 HC        1 <0>         0.0000
     36 H16         2.3033    0.0570    0.0000 HC        1 <0>         0.0000
     37 H17         3.1279    0.0313    0.0000 HC        1 <0>         0.0000
     38 H18         3.1279    0.0313    0.0000 HC        1 <0>         0.0000
     39 H19         4.1345   -1.0403    0.0000 HC        1 <0>         0.0000
     40 H20         4.1345   -1.0403    0.0000 HC        1 <0>         0.0000
     41 H21         4.1345   -1.0403    0.0000 HC        1 <0>         0.0000
     42 H22         1.6306   -2.3217    0.0000 HA        1 <0>         0.0000
     43 H23         1.0351   -1.7508    0.0000 HA        1 <0>         0.0000
     44 H24         0.0462   -2.7823    0.0000 HO        1 <0>         0.0000
@<TRIPOS>BOND
     1    1    2 1
     2    2    3 1
     3    2    4 1
     4    2   21 1
     5    3    6 1
     6    4    5 1
     7    5    6 1
     8    5   19 1
     9    5   22 1
    10    6    7 1
    11    6   23 1
    12    7    8 2
    13    8    9 1
    14    9   10 1
    15   10   11 1
    16   11   12 1
    17   12   13 1
    18   12   14 1
    19   12   24 1
    20   14   15 1
    21   15   16 2
    22   15   17 1
    23   17   18 2
    24   18   19 1
    25   19   20 1
    26   19   25 1
    27    1   26 1
    28    3   27 1
    29    3   28 1
    30    4   29 1
    31    4   30 1
    32    7   31 1
    33    8   32 1
    34    9   33 1
    35    9   34 1
    36   10   35 1
    37   10   36 1
    38   11   37 1
    39   11   38 1
    40   13   39 1
    41   13   40 1
    42   13   41 1
    43   17   42 1
    44   18   43 1
    45   20   44 1
@<TRIPOS>MOLECULE
HMDB02124.mol
   30    32     0     0     0
SMALL
NO_CHARGES

@<TRIPOS>ATOM
      1 C1         -2.4992    0.2064    0.0000 CA        1 <0>         0.0000
      2 C2         -2.4992   -0.6193    0.0000 CA        1 <0>         0.0000
      3 C3         -1.7850   -1.0322    0.0000 CA        1 <0>         0.0000
      4 C4         -1.0721   -0.6193    0.0000 CB        1 <0>         0.0000
      5 C5         -1.0721    0.2064    0.0000 CB        1 <0>         0.0000
      6 C6         -1.7850    0.6179    0.0000 CA        1 <0>         0.0000
      7 C7         -0.3578   -1.0322    0.0000 C         1 <0>         0.0000
      8 C8          0.3551   -0.6193    0.0000 CA        1 <0>         0.0000
      9 C9          0.3551    0.2064    0.0000 CP        1 <0>         0.0000
     10 O1         -0.3578    0.6179    0.0000 OS        1 <0>         0.0000
     11 O2         -0.3578   -1.8579    0.0000 O         1 <0>         0.0000
     12 C10         1.0707    0.6193    0.0000 CP        1 <0>         0.0000
     13 C11         1.7863    0.2064    0.0000 CA        1 <0>         0.0000
     14 C12         2.5006    0.6193    0.0000 CA        1 <0>         0.0000
     15 C13         2.5006    1.4437    0.0000 CA        1 <0>         0.0000
     16 C14         1.7863    1.8551    0.0000 CA        1 <0>         0.0000
     17 C15         1.0707    1.4437    0.0000 CA        1 <0>         0.0000
     18 O3          3.2149    1.8565    0.0000 OH        1 <0>         0.0000
     19 O4         -1.7850   -1.8579    0.0000 OH        1 <0>         0.0000
     20 O5         -3.2135    0.6193    0.0000 OH        1 <0>         0.0000
     21 H1         -2.4992   -0.6193    0.0000 HA        1 <0>         0.0000
     22 H2         -1.7850    0.6179    0.0000 HA        1 <0>         0.0000
     23 H3          0.3551   -0.6193    0.0000 HA        1 <0>         0.0000
     24 H4          1.7863    0.2064    0.0000 HA        1 <0>         0.0000
     25 H5          2.5006    0.6193    0.0000 HA        1 <0>         0.0000
     26 H6          1.7863    1.8551    0.0000 HA        1 <0>         0.0000
     27 H7          1.0707    1.4437    0.0000 HA        1 <0>         0.0000
     28 H8          3.2149    1.8565    0.0000 HO        1 <0>         0.0000
     29 H9         -1.7850   -1.8579    0.0000 HO        1 <0>         0.0000
     30 H10        -3.2135    0.6193    0.0000 HO        1 <0>         0.0000
@<TRIPOS>BOND
     1    1    2 ar
     2    2    3 ar
     3    3    4 ar
     4    4    5 ar
     5    5    6 ar
     6    1    6 ar
     7    4    7 1
     8    7    8 1
     9    8    9 2
    10    9   10 1
    11    5   10 1
    12    7   11 2
    13    9   12 1
    14   12   13 ar
    15   13   14 ar
    16   14   15 ar
    17   15   16 ar
    18   16   17 ar
    19   12   17 ar
    20   15   18 1
    21    3   19 1
    22    1   20 1
    23    2   21 1
    24    6   22 1
    25    8   23 1
    26   13   24 1
    27   14   25 1
    28   16   26 1
    29   17   27 1
    30   18   28 1
    31   19   29 1
    32   20   30 1
@<TRIPOS>MOLECULE
AI7
   37    37     0     0     0
SMALL
NO_CHARGES

@<TRIPOS>ATOM
      1 C1         -4.1279   -1.5752    0.0000 CA        1 <0>         0.0000
      2 C2         -4.1279   -3.2252    0.0000 CA        1 <0>         0.0000
      3 C3         -4.8423   -2.8127    0.0000 CA        1 <0>         0.0000
      4 C4          0.8734   -1.9877    0.0000 CT        1 <0>         0.0000
      5 C5         -5.5568   -1.5752    0.0000 C         1 <0>         0.0000
      6 C6         -1.2700   -1.5752    0.0000 CT        1 <0>         0.0000
      7 C7         -3.4134   -2.8127    0.0000 CA        1 <0>         0.0000
      8 C8         -1.9845   -1.9877    0.0000 CT        1 <0>         0.0000
      9 C9          2.3024   -1.9877    0.0000 CT        1 <0>         0.0000
     10 C10         1.5879   -1.5752    0.0000 CT        1 <0>         0.0000
     11 C11        -3.4134   -1.9877    0.0000 CA        1 <0>         0.0000
     12 C12         0.1590   -1.5752    0.0000 CT        1 <0>         0.0000
     13 C13        -0.5555   -1.9877    0.0000 CT        1 <0>         0.0000
     14 C14        -4.8423   -1.9877    0.0000 CA        1 <0>         0.0000
     15 O1         -6.2713   -1.9877    0.0000 O         1 <0>         0.0000
     16 O2         -2.6989   -1.5752    0.0000 OS        1 <0>         0.0000
     17 O3         -5.5568   -0.7502    0.0000 OH        1 <0>         0.0000
     18 H1         -4.1279   -1.5752    0.0000 HA        1 <0>         0.0000
     19 H2         -4.1279   -3.2252    0.0000 HA        1 <0>         0.0000
     20 H3         -4.8423   -2.8127    0.0000 HA        1 <0>         0.0000
     21 H4          0.8734   -1.9877    0.0000 HC        1 <0>         0.0000
     22 H5          0.8734   -1.9877    0.0000 HC        1 <0>         0.0000
     23 H6         -1.2700   -1.5752    0.0000 HC        1 <0>         0.0000
     24 H7         -1.2700   -1.5752    0.0000 HC        1 <0>         0.0000
     25 H8         -3.4134   -2.8127    0.0000 HA        1 <0>         0.0000
     26 H9         -1.9845   -1.9877    0.0000 H1        1 <0>         0.0000
     27 H10        -1.9845   -1.9877    0.0000 H1        1 <0>         0.0000
     28 H11         2.3024   -1.9877    0.0000 HC        1 <0>         0.0000
     29 H12         2.3024   -1.9877    0.0000 HC        1 <0>         0.0000
     30 H13         2.3024   -1.9877    0.0000 HC        1 <0>         0.0000
     31 H14         1.5879   -1.5752    0.0000 HC        1 <0>         0.0000
     32 H15         1.5879   -1.5752    0.0000 HC        1 <0>         0.0000
     33 H16         0.1590   -1.5752    0.0000 HC        1 <0>         0.0000
     34 H17         0.1590   -1.5752    0.0000 HC        1 <0>         0.0000
     35 H18        -0.5555   -1.9877    0.0000 HC        1 <0>         0.0000
     36 H19        -0.5555   -1.9877    0.0000 HC        1 <0>         0.0000
     37 H20        -5.5568   -0.7502    0.0000 HO        1 <0>         0.0000
@<TRIPOS>BOND
     1    1   11 ar
     2    2    7 ar
     3    2    3 ar
     4    3   14 ar
     5    4   12 1
     6    4   10 1
     7    5   14 1
     8    5   17 1
     9    6   13 1
    10    7   11 ar
    11    6    8 1
    12    9   10 1
    13   11   16 1
    14   12   13 1
    15    1   14 ar
    16    5   15 2
    17    8   16 1
    18    1   18 1
    19    2   19 1
    20    3   20 1
    21    4   21 1
    22    4   22 1
    23    6   23 1
    24    6   24 1
    25    7   25 1
    26    8   26 1
    27    8   27 1
    28    9   28 1
    29    9   29 1
    30    9   30 1
    31   10   31 1
    32   10   32 1
    33   12   33 1
    34   12   34 1
    35   13   35 1
    36   13   36 1
    37   17   37 1
@<TRIPOS>MOLECULE
AN1
   36    38     0     0     0
SMALL
NO_CHARGES

@<TRIPOS>ATOM
      1 O1         -1.2578   -2.8653    0.0000 OH        1 <0>         0.0000
      2 C1         -0.5434   -2.4528    0.0000 C         1 <0>         0.0000
      3 O2          0.1711   -2.8653    0.0000 O         1 <0>         0.0000
      4 C2         -0.5434   -1.6278    0.0000 CT        1 <0>         0.0000
      5 C3          0.1711   -1.2153    0.0000 CT        1 <0>         0.0000
      6 C4          0.1711   -0.3903    0.0000 CA        1 <0>         0.0000
      7 C5          0.8856    0.0222    0.0000 CB        1 <0>         0.0000
      8 C6          1.6000   -0.3903    0.0000 CA        1 <0>         0.0000
      9 C7          2.3145    0.0222    0.0000 CA        1 <0>         0.0000
     10 C8          2.3145    0.8472    0.0000 CA        1 <0>         0.0000
     11 C9          1.6000    1.2597    0.0000 CA        1 <0>         0.0000
     12 C10         0.8856    0.8472    0.0000 CB        1 <0>         0.0000
     13 C11         0.1711    1.2597    0.0000 CA        1 <0>         0.0000
     14 C12        -0.5434    0.8472    0.0000 CB        1 <0>         0.0000
     15 C13        -0.5434    0.0222    0.0000 CB        1 <0>         0.0000
     16 C14        -1.2578   -0.3903    0.0000 CA        1 <0>         0.0000
     17 C15        -1.9723    0.0222    0.0000 CA        1 <0>         0.0000
     18 C16        -1.9723    0.8472    0.0000 CA        1 <0>         0.0000
     19 C17        -1.2578    1.2597    0.0000 CA        1 <0>         0.0000
     20 C18         0.1711    2.0847    0.0000 CT        1 <0>         0.0000
     21 H1         -1.2578   -2.8653    0.0000 HO        1 <0>         0.0000
     22 H2         -0.5434   -1.6278    0.0000 HC        1 <0>         0.0000
     23 H3         -0.5434   -1.6278    0.0000 HC        1 <0>         0.0000
     24 H4          0.1711   -1.2153    0.0000 HC        1 <0>         0.0000
     25 H5          0.1711   -1.2153    0.0000 HC        1 <0>         0.0000
     26 H6          1.6000   -0.3903    0.0000 HA        1 <0>         0.0000
     27 H7          2.3145    0.0222    0.0000 HA        1 <0>         0.0000
     28 H8          2.3145    0.8472    0.0000 HA        1 <0>         0.0000
     29 H9          1.6000    1.2597    0.0000 HA        1 <0>         0.0000
     30 H10        -1.2578   -0.3903    0.0000 HA        1 <0>         0.0000
     31 H11        -1.9723    0.0222    0.0000 HA        1 <0>         0.0000
     32 H12        -1.9723    0.8472    0.0000 HA        1 <0>         0.0000
     33 H13        -1.2578    1.2597    0.0000 HA        1 <0>         0.0000
     34 H14         0.1711    2.0847    0.0000 HC        1 <0>         0.0000
     35 H15         0.1711    2.0847    0.0000 HC        1 <0>         0.0000
     36 H16         0.1711    2.0847    0.0000 HC        1 <0>         0.0000
@<TRIPOS>BOND
     1    1    2 1
     2    2    3 2
     3    2    4 1
     4    4    5 1
     5    5    6 1
     6    6    7 ar
     7    6   15 ar
     8    7    8 ar
     9    7   12 ar
    10    8    9 ar
    11    9   10 ar
    12   10   11 ar
    13   11   12 ar
    14   12   13 ar
    15   13   14 ar
    16   13   20 1
    17   14   15 ar
    18   14   19 ar
    19   15   16 ar
    20   16   17 ar
    21   17   18 ar
    22   18   19 ar
    23    1   21 1
    24    4   22 1
    25    4   23 1
    26    5   24 1
    27    5   25 1
    28    8   26 1
    29    9   27 1
    30   10   28 1
    31   11   29 1
    32   16   30 1
    33   17   31 1
    34   18   32 1
    35   19   33 1
    36   20   34 1
    37   20   35 1
    38   20   36 1
@<TRIPOS>MOLECULE
*****
   45    48     0     0     0
SMALL
NO_CHARGES

@<TRIPOS>ATOM
      1 C1         12.3065   -8.6205    0.0000 CT        1 <0>         0.0000
      2 C2         12.3065   -9.4455    0.0000 CM        1 <0>         0.0000
      3 C3         11.5919   -8.2080    0.0000 CM        1 <0>         0.0000
      4 C4         11.5919   -9.8580    0.0000 CM        1 <0>         0.0000
      5 C5         10.8775   -8.6205    0.0000 CM        1 <0>         0.0000
      6 C6         10.8775   -9.4455    0.0000 C         1 <0>         0.0000
      7 C7         13.7354   -8.6205    0.0000 CT        1 <0>         0.0000
      8 C8         13.7354   -9.4455    0.0000 CT        1 <0>         0.0000
      9 C9         13.0209   -8.2080    0.0000 CT        1 <0>         0.0000
     10 C10        13.0209   -9.8580    0.0000 CT        1 <0>         0.0000
     11 C11        14.4500   -7.3830    0.0000 CT        1 <0>         0.0000
     12 C12        14.4500   -8.2080    0.0000 CT        1 <0>         0.0000
     13 C13        13.7354   -6.9705    0.0000 CT        1 <0>         0.0000
     14 C14        13.0210   -7.3830    0.0000 CT        1 <0>         0.0000
     15 C15        15.0248   -7.1001    0.0000 C         1 <0>         0.0000
     16 C16        15.6775   -7.3341    0.0000 CT        1 <0>         0.0000
     17 C17        15.6681   -8.2113    0.0000 CT        1 <0>         0.0000
     18 C18        14.4444   -6.6979    0.0000 CT        1 <0>         0.0000
     19 H1         14.4305   -9.0190    0.0000 HC        1 <0>         0.0000
     20 H2         13.0182   -8.9911    0.0000 HC        1 <0>         0.0000
     21 H3         13.7313   -7.8584    0.0000 HC        1 <0>         0.0000
     22 O1         15.0317   -6.5440    0.0000 O         1 <0>         0.0000
     23 O2         10.4173   -9.7602    0.0000 O         1 <0>         0.0000
     24 C19        12.3051   -7.9423    0.0000 CT        1 <0>         0.0000
     25 H4         11.5919   -8.2080    0.0000 HA        1 <0>         0.0000
     26 H5         11.5919   -9.8580    0.0000 HA        1 <0>         0.0000
     27 H6         10.8775   -8.6205    0.0000 HA        1 <0>         0.0000
     28 H7         13.7354   -9.4455    0.0000 HC        1 <0>         0.0000
     29 H8         13.7354   -9.4455    0.0000 HC        1 <0>         0.0000
     30 H9         13.0209   -9.8580    0.0000 HC        1 <0>         0.0000
     31 H10        13.0209   -9.8580    0.0000 HC        1 <0>         0.0000
     32 H11        13.7354   -6.9705    0.0000 HC        1 <0>         0.0000
     33 H12        13.7354   -6.9705    0.0000 HC        1 <0>         0.0000
     34 H13        13.0210   -7.3830    0.0000 HC        1 <0>         0.0000
     35 H14        13.0210   -7.3830    0.0000 HC        1 <0>         0.0000
     36 H15        15.6775   -7.3341    0.0000 HC        1 <0>         0.0000
     37 H16        15.6775   -7.3341    0.0000 HC        1 <0>         0.0000
     38 H17        15.6681   -8.2113    0.0000 HC        1 <0>         0.0000
     39 H18        15.6681   -8.2113    0.0000 HC        1 <0>         0.0000
     40 H19        14.4444   -6.6979    0.0000 HC        1 <0>         0.0000
     41 H20        14.4444   -6.6979    0.0000 HC        1 <0>         0.0000
     42 H21        14.4444   -6.6979    0.0000 HC        1 <0>         0.0000
     43 H22        12.3051   -7.9423    0.0000 HC        1 <0>         0.0000
     44 H23        12.3051   -7.9423    0.0000 HC        1 <0>         0.0000
     45 H24        12.3051   -7.9423    0.0000 HC        1 <0>         0.0000
@<TRIPOS>BOND
     1    1    3 1
     2    2    4 2
     3    3    5 2
     4    4    6 1
     5    7    8 1
     6    8   10 1
     7    1    9 1
     8    2   10 1
     9    1    2 1
    10   11   13 1
    11    7   12 1
    12   13   14 1
    13    7    9 1
    14    9   14 1
    15   11   15 1
    16   11   12 1
    17   15   16 1
    18   12   17 1
    19   16   17 1
    20    5    6 1
    21   11   18 1
    22   12   19 1
    23    9   20 1
    24    7   21 1
    25   15   22 2
    26    6   23 2
    27    1   24 1
    28    3   25 1
    29    4   26 1
    30    5   27 1
    31    8   28 1
    32    8   29 1
    33   10   30 1
    34   10   31 1
    35   13   32 1
    36   13   33 1
    37   14   34 1
    38   14   35 1
    39   16   36 1
    40   16   37 1
    41   17   38 1
    42   17   39 1
    43   18   40 1
    44   18   41 1
    45   18   42 1
    46   24   43 1
    47   24   44 1
    48   24   45 1
@<TRIPOS>MOLECULE
*****
   49    52     0     0     0
SMALL
NO_CHARGES

@<TRIPOS>ATOM
      1 O1         27.2404  -13.2832    0.0000 O         1 <0>         0.0000
      2 O2         22.0478  -16.4083    0.0000 O         1 <0>         0.0000
      3 C1         24.1206  -14.4213    0.0000 CT        1 <0>         0.0000
      4 C2         26.2937  -13.1783    0.0000 CT        1 <0>         0.0000
      5 C3         24.1143  -15.2462    0.0000 CT        1 <0>         0.0000
      6 C4         26.2937  -14.0032    0.0000 CT        1 <0>         0.0000
      7 C5         24.8649  -14.8281    0.0000 CT        1 <0>         0.0000
      8 C6         25.5794  -15.2405    0.0000 CT        1 <0>         0.0000
      9 C7         26.2937  -14.8281    0.0000 CT        1 <0>         0.0000
     10 C8         24.1077  -16.1054    0.0000 CT        1 <0>         0.0000
     11 C9         25.5794  -13.5908    0.0000 CT        1 <0>         0.0000
     12 C10        24.8649  -14.0032    0.0000 CT        1 <0>         0.0000
     13 C11        25.5926  -16.0996    0.0000 CT        1 <0>         0.0000
     14 C12        24.8518  -16.5350    0.0000 CT        1 <0>         0.0000
     15 C13        27.0742  -15.0795    0.0000 CT        1 <0>         0.0000
     16 C14        23.3498  -14.7809    0.0000 CT        1 <0>         0.0000
     17 C15        27.5557  -14.4156    0.0000 CT        1 <0>         0.0000
     18 C16        23.3361  -16.5589    0.0000 CT        1 <0>         0.0000
     19 C17        22.5678  -15.2164    0.0000 CT        1 <0>         0.0000
     20 C18        27.0742  -13.7518    0.0000 C         1 <0>         0.0000
     21 C19        22.5609  -16.1113    0.0000 C         1 <0>         0.0000
     22 H1         25.4591  -14.4755    0.0000 HC        1 <0>         0.0000
     23 H2         26.0632  -15.7464    0.0000 HC        1 <0>         0.0000
     24 H3         26.6340  -15.5068    0.0000 HC        1 <0>         0.0000
     25 H4         24.1102  -16.7653    0.0000 HC        1 <0>         0.0000
     26 H5         24.1206  -14.4213    0.0000 HC        1 <0>         0.0000
     27 H6         24.1206  -14.4213    0.0000 HC        1 <0>         0.0000
     28 H7         24.1206  -14.4213    0.0000 HC        1 <0>         0.0000
     29 H8         26.2937  -13.1783    0.0000 HC        1 <0>         0.0000
     30 H9         26.2937  -13.1783    0.0000 HC        1 <0>         0.0000
     31 H10        26.2937  -13.1783    0.0000 HC        1 <0>         0.0000
     32 H11        25.5794  -13.5908    0.0000 HC        1 <0>         0.0000
     33 H12        25.5794  -13.5908    0.0000 HC        1 <0>         0.0000
     34 H13        24.8649  -14.0032    0.0000 HC        1 <0>         0.0000
     35 H14        24.8649  -14.0032    0.0000 HC        1 <0>         0.0000
     36 H15        25.5926  -16.0996    0.0000 HC        1 <0>         0.0000
     37 H16        25.5926  -16.0996    0.0000 HC        1 <0>         0.0000
     38 H17        24.8518  -16.5350    0.0000 HC        1 <0>         0.0000
     39 H18        24.8518  -16.5350    0.0000 HC        1 <0>         0.0000
     40 H19        27.0742  -15.0795    0.0000 HC        1 <0>         0.0000
     41 H20        27.0742  -15.0795    0.0000 HC        1 <0>         0.0000
     42 H21        23.3498  -14.7809    0.0000 HC        1 <0>         0.0000
     43 H22        23.3498  -14.7809    0.0000 HC        1 <0>         0.0000
     44 H23        27.5557  -14.4156    0.0000 HC        1 <0>         0.0000
     45 H24        27.5557  -14.4156    0.0000 HC        1 <0>         0.0000
     46 H25        23.3361  -16.5589    0.0000 HC        1 <0>         0.0000
     47 H26        23.3361  -16.5589    0.0000 HC        1 <0>         0.0000
     48 H27        22.5678  -15.2164    0.0000 HC        1 <0>         0.0000
     49 H28        22.5678  -15.2164    0.0000 HC        1 <0>         0.0000
@<TRIPOS>BOND
     1    1   20 2
     2    2   21 2
     3    3    5 1
     4    4    6 1
     5    5    7 1
     6    5   10 1
     7    5   16 1
     8    6    9 1
     9    6   11 1
    10    6   20 1
    11    7    8 1
    12    7   12 1
    13    7   22 1
    14    8    9 1
    15    8   13 1
    16    8   23 1
    17    9   15 1
    18    9   24 1
    19   10   14 1
    20   10   18 1
    21   10   25 1
    22   11   12 1
    23   13   14 1
    24   15   17 1
    25   16   19 1
    26   17   20 1
    27   18   21 1
    28   19   21 1
    29    3   26 1
    30    3   27 1
    31    3   28 1
    32    4   29 1
    33    4   30 1
    34    4   31 1
    35   11   32 1
    36   11   33 1
    37   12   34 1
    38   12   35 1
    39   13   36 1
    40   13   37 1
    41   14   38 1
    42   14   39 1
    43   15   40 1
    44   15   41 1
    45   16   42 1
    46   16   43 1
    47   17   44 1
    48   17   45 1
    49   18   46 1
    50   18   47 1
    51   19   48 1
    52   19   49 1
@<TRIPOS>MOLECULE
APG
   22    22     0     0     0
SMALL
NO_CHARGES

@<TRIPOS>ATOM
      1 C1          0.7386    1.4373    0.0000 CA        1 <0>         0.0000
      2 C2          0.7386    0.6123    0.0000 CA        1 <0>         0.0000
      3 C3          0.0241    0.1998    0.0000 CA        1 <0>         0.0000
      4 C4         -0.6904    0.6123    0.0000 CA        1 <0>         0.0000
      5 C5         -0.6904    1.4373    0.0000 CA        1 <0>         0.0000
      6 C6          0.0241    1.8498    0.0000 CA        1 <0>         0.0000
      7 C7          0.0241   -0.6252    0.0000 CT        1 <0>         0.0000
      8 O1         -0.8009   -0.6252    0.0000 OH        1 <0>         0.0000
      9 C8          0.0241   -1.4502    0.0000 C         1 <0>         0.0000
     10 C9          0.8491   -0.6252    0.0000 CT        1 <0>         0.0000
     11 O2          0.7386   -1.8627    0.0000 O         1 <0>         0.0000
     12 O3         -0.6904   -1.8627    0.0000 OH        1 <0>         0.0000
     13 H1          0.7386    1.4373    0.0000 HA        1 <0>         0.0000
     14 H2          0.7386    0.6123    0.0000 HA        1 <0>         0.0000
     15 H3         -0.6904    0.6123    0.0000 HA        1 <0>         0.0000
     16 H4         -0.6904    1.4373    0.0000 HA        1 <0>         0.0000
     17 H5          0.0241    1.8498    0.0000 HA        1 <0>         0.0000
     18 H6         -0.8009   -0.6252    0.0000 HO        1 <0>         0.0000
     19 H7          0.8491   -0.6252    0.0000 HC        1 <0>         0.0000
     20 H8          0.8491   -0.6252    0.0000 HC        1 <0>         0.0000
     21 H9          0.8491   -0.6252    0.0000 HC        1 <0>         0.0000
     22 H10        -0.6904   -1.8627    0.0000 HO        1 <0>         0.0000
@<TRIPOS>BOND
     1    1    2 ar
     2    1    6 ar
     3    2    3 ar
     4    3    4 ar
     5    3    7 1
     6    4    5 ar
     7    5    6 ar
     8    7    8 1
     9    7    9 1
    10    7   10 1
    11    9   11 2
    12    9   12 1
    13    1   13 1
    14    2   14 1
    15    4   15 1
    16    5   16 1
    17    6   17 1
    18    8   18 1
    19   10   19 1
    20   10   20 1
    21   10   21 1
    22   12   22 1
@<TRIPOS>MOLECULE
AUR
   65    67     0     0     0
SMALL
NO_CHARGES

@<TRIPOS>ATOM
      1 C1         -1.7171   -0.6028    0.0000 CT        1 <0>         0.0000
      2 C2         -1.8687    0.2241    0.0000 CT        1 <0>         0.0000
      3 C3         -2.1093    1.0897    0.0000 CT        1 <0>         0.0000
      4 C4         -1.7888    1.7983    0.0000 CT        1 <0>         0.0000
      5 C5         -2.2669    1.9907    0.0000 CT        1 <0>         0.0000
      6 C6         -2.2097    1.4251    0.0000 CT        1 <0>         0.0000
      7 C7         -1.2380    1.4251    0.0000 CT        1 <0>         0.0000
      8 C8         -0.7218    0.9964    0.0000 CT        1 <0>         0.0000
      9 C9         -1.7476    2.7170    0.0000 CT        1 <0>         0.0000
     10 C10        -3.1007    1.4397    0.0000 CT        1 <0>         0.0000
     11 C11        -4.3334    2.6585    0.0000 CT        1 <0>         0.0000
     12 C12        -3.6267    3.0842    0.0000 C         1 <0>         0.0000
     13 O1         -2.7296    0.7128    0.0000 OS        1 <0>         0.0000
     14 O2         -0.8600    1.8138    0.0000 OS        1 <0>         0.0000
     15 O3         -2.8633    2.6621    0.0000 OS        1 <0>         0.0000
     16 O4         -0.9397    2.3776    0.0000 OH        1 <0>         0.0000
     17 O5         -3.6420    3.9090    0.0000 O         1 <0>         0.0000
     18 C13        -0.1488    0.3295    0.0000 CM        1 <0>         0.0000
     19 C14         0.7080    0.1968    0.0000 CM        1 <0>         0.0000
     20 C15         1.0063   -0.5723    0.0000 CM        1 <0>         0.0000
     21 C16         1.8216   -0.6986    0.0000 CM        1 <0>         0.0000
     22 C17         2.1199   -1.4678    0.0000 CM        1 <0>         0.0000
     23 C18         2.9352   -1.5940    0.0000 CM        1 <0>         0.0000
     24 C19         3.2335   -2.3632    0.0000 CA        1 <0>         0.0000
     25 C20         4.0488   -2.4895    0.0000 CA        1 <0>         0.0000
     26 C21         4.3471   -3.2587    0.0000 CA        1 <0>         0.0000
     27 C22         3.8301   -3.9016    0.0000 CA        1 <0>         0.0000
     28 C23         3.0148   -3.7753    0.0000 C         1 <0>         0.0000
     29 C24         4.5658   -1.8466    0.0000 CT        1 <0>         0.0000
     30 C25         5.6793   -2.7420    0.0000 CT        1 <0>         0.0000
     31 O6          2.7165   -3.0061    0.0000 OS        1 <0>         0.0000
     32 O7          5.1624   -3.3849    0.0000 OS        1 <0>         0.0000
     33 O8          2.4978   -4.4183    0.0000 O         1 <0>         0.0000
     34 H1         -1.5271    1.0449    0.0000 H1        1 <0>         0.0000
     35 H2         -2.8016    1.7560    0.0000 H1        1 <0>         0.0000
     36 H3         -1.4019    1.9855    0.0000 H1        1 <0>         0.0000
     37 H4         -0.9641    0.4651    0.0000 H1        1 <0>         0.0000
     38 H5         -1.7171   -0.6028    0.0000 HC        1 <0>         0.0000
     39 H6         -1.7171   -0.6028    0.0000 HC        1 <0>         0.0000
     40 H7         -1.7171   -0.6028    0.0000 HC        1 <0>         0.0000
     41 H8         -1.8687    0.2241    0.0000 HC        1 <0>         0.0000
     42 H9         -1.8687    0.2241    0.0000 HC        1 <0>         0.0000
     43 H10        -1.7476    2.7170    0.0000 HC        1 <0>         0.0000
     44 H11        -1.7476    2.7170    0.0000 HC        1 <0>         0.0000
     45 H12        -1.7476    2.7170    0.0000 HC        1 <0>         0.0000
     46 H13        -3.1007    1.4397    0.0000 HC        1 <0>         0.0000
     47 H14        -3.1007    1.4397    0.0000 HC        1 <0>         0.0000
     48 H15        -3.1007    1.4397    0.0000 HC        1 <0>         0.0000
     49 H16        -4.3334    2.6585    0.0000 HC        1 <0>         0.0000
     50 H17        -4.3334    2.6585    0.0000 HC        1 <0>         0.0000
     51 H18        -4.3334    2.6585    0.0000 HC        1 <0>         0.0000
     52 H19        -0.9397    2.3776    0.0000 HO        1 <0>         0.0000
     53 H20        -0.1488    0.3295    0.0000 HA        1 <0>         0.0000
     54 H21         0.7080    0.1968    0.0000 HA        1 <0>         0.0000
     55 H22         1.0063   -0.5723    0.0000 HA        1 <0>         0.0000
     56 H23         1.8216   -0.6986    0.0000 HA        1 <0>         0.0000
     57 H24         2.1199   -1.4678    0.0000 HA        1 <0>         0.0000
     58 H25         2.9352   -1.5940    0.0000 HA        1 <0>         0.0000
     59 H26         3.8301   -3.9016    0.0000 HA        1 <0>         0.0000
     60 H27         4.5658   -1.8466    0.0000 HC        1 <0>         0.0000
     61 H28         4.5658   -1.8466    0.0000 HC        1 <0>         0.0000
     62 H29         4.5658   -1.8466    0.0000 HC        1 <0>         0.0000
     63 H30         5.6793   -2.7420    0.0000 H1        1 <0>         0.0000
     64 H31         5.6793   -2.7420    0.0000 H1        1 <0>         0.0000
     65 H32         5.6793   -2.7420    0.0000 H1        1 <0>         0.0000
@<TRIPOS>BOND
     1    1    2 1
     2    2    3 1
     3    3    4 1
     4    3   13 1
     5    3   34 1
     6    4    5 1
     7    4    9 1
     8    4   14 1
     9    5    6 1
    10    5   15 1
    11    5   35 1
    12    6    7 1
    13    6   10 1
    14    6   13 1
    15    7    8 1
    16    7   16 1
    17    7   36 1
    18    8   14 1
    19    8   18 1
    20    8   37 1
    21   11   12 1
    22   12   15 1
    23   12   17 2
    24   18   19 2
    25   19   20 1
    26   20   21 2
    27   21   22 1
    28   22   23 2
    29   23   24 1
    30   24   25 2
    31   24   31 1
    32   25   26 1
    33   25   29 1
    34   26   27 2
    35   26   32 1
    36   27   28 1
    37   28   31 1
    38   28   33 2
    39   30   32 1
    40    1   38 1
    41    1   39 1
    42    1   40 1
    43    2   41 1
    44    2   42 1
    45    9   43 1
    46    9   44 1
    47    9   45 1
    48   10   46 1
    49   10   47 1
    50   10   48 1
    51   11   49 1
    52   11   50 1
    53   11   51 1
    54   16   52 1
    55   18   53 1
    56   19   54 1
    57   20   55 1
    58   21   56 1
    59   22   57 1
    60   23   58 1
    61   27   59 1
    62   29   60 1
    63   29   61 1
    64   29   62 1
    65   30   63 1
    66   30   64 1
    67   30   65 1
@<TRIPOS>MOLECULE
B21
   26    27     0     0     0
SMALL
NO_CHARGES

@<TRIPOS>ATOM
      1 C1          1.4288    0.8937    0.0000 CT        1 <0>         0.0000
      2 O1          0.7144    0.4812    0.0000 OS        1 <0>         0.0000
      3 C2         -0.0001    0.8937    0.0000 CA        1 <0>         0.0000
      4 C3         -0.0001    1.7187    0.0000 CA        1 <0>         0.0000
      5 C4         -0.7146    2.1312    0.0000 CA        1 <0>         0.0000
      6 C5         -1.4290    1.7187    0.0000 CA        1 <0>         0.0000
      7 C6         -1.4290    0.8937    0.0000 CA        1 <0>         0.0000
      8 C7         -0.7146    0.4812    0.0000 CA        1 <0>         0.0000
      9 C8         -0.7146   -0.3438    0.0000 CW        1 <0>         0.0000
     10 O2         -0.0471   -0.8287    0.0000 OS        1 <0>         0.0000
     11 C9         -1.3820   -0.8287    0.0000 CC        1 <0>         0.0000
     12 C10        -1.1271   -1.6133    0.0000 CC        1 <0>         0.0000
     13 C11        -0.3021   -1.6133    0.0000 CW        1 <0>         0.0000
     14 C12         0.1829   -2.2808    0.0000 C         1 <0>         0.0000
     15 O3          1.0033   -2.1945    0.0000 O         1 <0>         0.0000
     16 O4         -0.1527   -3.0344    0.0000 OH        1 <0>         0.0000
     17 H1          1.4288    0.8937    0.0000 H1        1 <0>         0.0000
     18 H2          1.4288    0.8937    0.0000 H1        1 <0>         0.0000
     19 H3          1.4288    0.8937    0.0000 H1        1 <0>         0.0000
     20 H4         -0.0001    1.7187    0.0000 HA        1 <0>         0.0000
     21 H5         -0.7146    2.1312    0.0000 HA        1 <0>         0.0000
     22 H6         -1.4290    1.7187    0.0000 HA        1 <0>         0.0000
     23 H7         -1.4290    0.8937    0.0000 HA        1 <0>         0.0000
     24 H8         -1.3820   -0.8287    0.0000 HA        1 <0>         0.0000
     25 H9         -1.1271   -1.6133    0.0000 HA        1 <0>         0.0000
     26 H10        -0.1527   -3.0344    0.0000 HO        1 <0>         0.0000
@<TRIPOS>BOND
     1    1    2 1
     2    2    3 1
     3    3    8 ar
     4    3    4 ar
     5    4    5 ar
     6    5    6 ar
     7    6    7 ar
     8    7    8 ar
     9    8    9 1
    10    9   10 1
    11    9   11 2
    12   10   13 1
    13   11   12 1
    14   12   13 2
    15   13   14 1
    16   14   15 2
    17   14   16 1
    18    1   17 1
    19    1   18 1
    20    1   19 1
    21    4   20 1
    22    5   21 1
    23    6   22 1
    24    7   23 1
    25   11   24 1
    26   12   25 1
    27   16   26 1
@<TRIPOS>MOLECULE
B3H
   51    50     0     0     0
SMALL
NO_CHARGES

@<TRIPOS>ATOM
      1 O1          0.4437    0.9708    0.0000 O         1 <0>         0.0000
      2 C1          0.4437    0.1457    0.0000 C         1 <0>         0.0000
      3 C2         -0.2707   -0.2668    0.0000 CT        1 <0>         0.0000
      4 C3         -0.9853    0.1457    0.0000 CT        1 <0>         0.0000
      5 C4         -1.6998   -0.2668    0.0000 CT        1 <0>         0.0000
      6 C5         -2.4143    0.1457    0.0000 CT        1 <0>         0.0000
      7 C6         -3.1288   -0.2668    0.0000 CT        1 <0>         0.0000
      8 C7         -3.8434    0.1457    0.0000 CT        1 <0>         0.0000
      9 C8         -4.5579   -0.2668    0.0000 CT        1 <0>         0.0000
     10 C9         -5.2724    0.1457    0.0000 CT        1 <0>         0.0000
     11 O2          4.0164   -1.0919    0.0000 O         1 <0>         0.0000
     12 C10         4.0164   -0.2668    0.0000 C         1 <0>         0.0000
     13 C11         4.7310    0.1457    0.0000 CT        1 <0>         0.0000
     14 C12         5.4454   -0.2668    0.0000 CT        1 <0>         0.0000
     15 C13         6.1600    0.1457    0.0000 CT        1 <0>         0.0000
     16 C14         1.8728    0.1457    0.0000 CT        1 <0>         0.0000
     17 O3          1.1583   -0.2668    0.0000 OS        1 <0>         0.0000
     18 C15         2.5874   -0.2668    0.0000 CT        1 <0>         0.0000
     19 O4          3.3018    0.1457    0.0000 OS        1 <0>         0.0000
     20 C16         2.5874   -1.0919    0.0000 CT        1 <0>         0.0000
     21 O5          3.3018   -1.5044    0.0000 OH        1 <0>         0.0000
     22 H1          2.5874    0.3171    0.0000 H1        1 <0>         0.0000
     23 H2         -0.2707   -0.2668    0.0000 HC        1 <0>         0.0000
     24 H3         -0.2707   -0.2668    0.0000 HC        1 <0>         0.0000
     25 H4         -0.9853    0.1457    0.0000 HC        1 <0>         0.0000
     26 H5         -0.9853    0.1457    0.0000 HC        1 <0>         0.0000
     27 H6         -1.6998   -0.2668    0.0000 HC        1 <0>         0.0000
     28 H7         -1.6998   -0.2668    0.0000 HC        1 <0>         0.0000
     29 H8         -2.4143    0.1457    0.0000 HC        1 <0>         0.0000
     30 H9         -2.4143    0.1457    0.0000 HC        1 <0>         0.0000
     31 H10        -3.1288   -0.2668    0.0000 HC        1 <0>         0.0000
     32 H11        -3.1288   -0.2668    0.0000 HC        1 <0>         0.0000
     33 H12        -3.8434    0.1457    0.0000 HC        1 <0>         0.0000
     34 H13        -3.8434    0.1457    0.0000 HC        1 <0>         0.0000
     35 H14        -4.5579   -0.2668    0.0000 HC        1 <0>         0.0000
     36 H15        -4.5579   -0.2668    0.0000 HC        1 <0>         0.0000
     37 H16        -5.2724    0.1457    0.0000 HC        1 <0>         0.0000
     38 H17        -5.2724    0.1457    0.0000 HC        1 <0>         0.0000
     39 H18        -5.2724    0.1457    0.0000 HC        1 <0>         0.0000
     40 H19         4.7310    0.1457    0.0000 HC        1 <0>         0.0000
     41 H20         4.7310    0.1457    0.0000 HC        1 <0>         0.0000
     42 H21         5.4454   -0.2668    0.0000 HC        1 <0>         0.0000
     43 H22         5.4454   -0.2668    0.0000 HC        1 <0>         0.0000
     44 H23         6.1600    0.1457    0.0000 HC        1 <0>         0.0000
     45 H24         6.1600    0.1457    0.0000 HC        1 <0>         0.0000
     46 H25         6.1600    0.1457    0.0000 HC        1 <0>         0.0000
     47 H26         1.8728    0.1457    0.0000 H1        1 <0>         0.0000
     48 H27         1.8728    0.1457    0.0000 H1        1 <0>         0.0000
     49 H28         2.5874   -1.0919    0.0000 H1        1 <0>         0.0000
     50 H29         2.5874   -1.0919    0.0000 H1        1 <0>         0.0000
     51 H30         3.3018   -1.5044    0.0000 HO        1 <0>         0.0000
@<TRIPOS>BOND
     1    1    2 2
     2    2    3 1
     3    2   17 1
     4    3    4 1
     5    4    5 1
     6    5    6 1
     7    6    7 1
     8    7    8 1
     9    8    9 1
    10    9   10 1
    11   11   12 2
    12   12   13 1
    13   12   19 1
    14   13   14 1
    15   14   15 1
    16   16   17 1
    17   16   18 1
    18   18   19 1
    19   18   20 1
    20   18   22 1
    21   20   21 1
    22    3   23 1
    23    3   24 1
    24    4   25 1
    25    4   26 1
    26    5   27 1
    27    5   28 1
    28    6   29 1
    29    6   30 1
    30    7   31 1
    31    7   32 1
    32    8   33 1
    33    8   34 1
    34    9   35 1
    35    9   36 1
    36   10   37 1
    37   10   38 1
    38   10   39 1
    39   13   40 1
    40   13   41 1
    41   14   42 1
    42   14   43 1
    43   15   44 1
    44   15   45 1
    45   15   46 1
    46   16   47 1
    47   16   48 1
    48   20   49 1
    49   20   50 1
    50   21   51 1
@<TRIPOS>MOLECULE
B72
   48    49     0     0     0
SMALL
NO_CHARGES

@<TRIPOS>ATOM
      1 O1          4.6381    1.7445    0.0000 OH        1 <0>         0.0000
      2 C1          3.9236    2.1570    0.0000 C         1 <0>         0.0000
      3 O2          3.9236    2.9820    0.0000 O         1 <0>         0.0000
      4 C2          3.2092    1.7445    0.0000 CT        1 <0>         0.0000
      5 O3          2.4947    2.1570    0.0000 OS        1 <0>         0.0000
      6 C3          1.7802    1.7445    0.0000 CA        1 <0>         0.0000
      7 C4          1.0658    2.1570    0.0000 CA        1 <0>         0.0000
      8 C5          0.3513    1.7445    0.0000 CA        1 <0>         0.0000
      9 C6         -0.3632    2.1570    0.0000 CT        1 <0>         0.0000
     10 C7          0.3513    0.9195    0.0000 CA        1 <0>         0.0000
     11 C8          1.0658    0.5070    0.0000 CA        1 <0>         0.0000
     12 C9          1.7802    0.9195    0.0000 CA        1 <0>         0.0000
     13 C10         1.0658   -0.3180    0.0000 CT        1 <0>         0.0000
     14 C11        -0.3632    0.5070    0.0000 CT        1 <0>         0.0000
     15 C12        -0.3632   -0.3180    0.0000 CA        1 <0>         0.0000
     16 C13        -1.0777   -0.7305    0.0000 CA        1 <0>         0.0000
     17 C14        -1.0777   -1.5555    0.0000 CA        1 <0>         0.0000
     18 C15        -1.7921   -1.9680    0.0000 CT        1 <0>         0.0000
     19 C16        -1.7921   -2.7930    0.0000 CT        1 <0>         0.0000
     20 C17        -2.5066   -1.5555    0.0000 CT        1 <0>         0.0000
     21 C18        -0.3632   -1.9680    0.0000 CA        1 <0>         0.0000
     22 O4         -0.3632   -2.7930    0.0000 OH        1 <0>         0.0000
     23 C19         0.3513   -1.5555    0.0000 CA        1 <0>         0.0000
     24 C20         0.3513   -0.7305    0.0000 CA        1 <0>         0.0000
     25 H1          4.6381    1.7445    0.0000 HO        1 <0>         0.0000
     26 H2          3.2092    1.7445    0.0000 H1        1 <0>         0.0000
     27 H3          3.2092    1.7445    0.0000 H1        1 <0>         0.0000
     28 H4          1.0658    2.1570    0.0000 HA        1 <0>         0.0000
     29 H5         -0.3632    2.1570    0.0000 HC        1 <0>         0.0000
     30 H6         -0.3632    2.1570    0.0000 HC        1 <0>         0.0000
     31 H7         -0.3632    2.1570    0.0000 HC        1 <0>         0.0000
     32 H8          1.7802    0.9195    0.0000 HA        1 <0>         0.0000
     33 H9          1.0658   -0.3180    0.0000 HC        1 <0>         0.0000
     34 H10         1.0658   -0.3180    0.0000 HC        1 <0>         0.0000
     35 H11         1.0658   -0.3180    0.0000 HC        1 <0>         0.0000
     36 H12        -0.3632    0.5070    0.0000 HC        1 <0>         0.0000
     37 H13        -0.3632    0.5070    0.0000 HC        1 <0>         0.0000
     38 H14        -1.0777   -0.7305    0.0000 HA        1 <0>         0.0000
     39 H15        -1.7921   -1.9680    0.0000 HC        1 <0>         0.0000
     40 H16        -1.7921   -2.7930    0.0000 HC        1 <0>         0.0000
     41 H17        -1.7921   -2.7930    0.0000 HC        1 <0>         0.0000
     42 H18        -1.7921   -2.7930    0.0000 HC        1 <0>         0.0000
     43 H19        -2.5066   -1.5555    0.0000 HC        1 <0>         0.0000
     44 H20        -2.5066   -1.5555    0.0000 HC        1 <0>         0.0000
     45 H21        -2.5066   -1.5555    0.0000 HC        1 <0>         0.0000
     46 H22        -0.3632   -2.7930    0.0000 HO        1 <0>         0.0000
     47 H23         0.3513   -1.5555    0.0000 HA        1 <0>         0.0000
     48 H24         0.3513   -0.7305    0.0000 HA        1 <0>         0.0000
@<TRIPOS>BOND
     1    2    3 2
     2    1    2 1
     3    2    4 1
     4    4    5 1
     5    5    6 1
     6    6    7 ar
     7    7    8 ar
     8    8    9 1
     9   10   11 ar
    10    8   10 ar
    11   11   12 ar
    12    6   12 ar
    13   11   13 1
    14   10   14 1
    15   15   24 ar
    16   14   15 1
    17   15   16 ar
    18   17   21 ar
    19   16   17 ar
    20   17   18 1
    21   18   20 1
    22   18   19 1
    23   21   23 ar
    24   21   22 1
    25   23   24 ar
    26    1   25 1
    27    4   26 1
    28    4   27 1
    29    7   28 1
    30    9   29 1
    31    9   30 1
    32    9   31 1
    33   12   32 1
    34   13   33 1
    35   13   34 1
    36   13   35 1
    37   14   36 1
    38   14   37 1
    39   16   38 1
    40   18   39 1
    41   19   40 1
    42   19   41 1
    43   19   42 1
    44   20   43 1
    45   20   44 1
    46   20   45 1
    47   22   46 1
    48   23   47 1
    49   24   48 1
@<TRIPOS>MOLECULE
BAP
   39    43     0     0     0
SMALL
NO_CHARGES

@<TRIPOS>ATOM
      1 C1         -2.8172   -0.4647    0.0000 CA        1 <0>         0.0000
      2 C2         -3.0872    0.3148    0.0000 CA        1 <0>         0.0000
      3 C3         -2.5471    0.9385    0.0000 CA        1 <0>         0.0000
      4 C4         -1.7370    0.7825    0.0000 CB        1 <0>         0.0000
      5 C5         -1.1969    1.4062    0.0000 CA        1 <0>         0.0000
      6 C6         -0.3868    1.2503    0.0000 CA        1 <0>         0.0000
      7 C7         -0.1167    0.4707    0.0000 CB        1 <0>         0.0000
      8 C8          0.6934    0.3148    0.0000 CA        1 <0>         0.0000
      9 C9          0.9635   -0.4647    0.0000 CA        1 <0>         0.0000
     10 C10         0.4234   -1.0884    0.0000 CA        1 <0>         0.0000
     11 C11        -0.3868   -0.9325    0.0000 CB        1 <0>         0.0000
     12 C12        -0.9269   -1.5561    0.0000 CA        1 <0>         0.0000
     13 C13        -1.7370   -1.4002    0.0000 CA        1 <0>         0.0000
     14 C14        -2.0070   -0.6206    0.0000 CB        1 <0>         0.0000
     15 C15        -1.4669    0.0030    0.0000 CB        1 <0>         0.0000
     16 C16        -0.6568   -0.1529    0.0000 CB        1 <0>         0.0000
     17 C17         1.7736   -0.6206    0.0000 CT        1 <0>         0.0000
     18 O1          2.0436   -1.4002    0.0000 OH        1 <0>         0.0000
     19 C18         2.3137    0.0030    0.0000 CT        1 <0>         0.0000
     20 O2          3.1238   -0.1529    0.0000 OH        1 <0>         0.0000
     21 C19         2.0436    0.7825    0.0000 CT        1 <0>         0.0000
     22 O3          2.5837    1.4062    0.0000 OH        1 <0>         0.0000
     23 C20         1.2335    0.9385    0.0000 CT        1 <0>         0.0000
     24 H1          1.3913   -1.0621    0.0000 H1        1 <0>         0.0000
     25 H2          2.5048   -0.5488    0.0000 H1        1 <0>         0.0000
     26 H3          2.6170    0.6722    0.0000 H1        1 <0>         0.0000
     27 H4         -2.8172   -0.4647    0.0000 HA        1 <0>         0.0000
     28 H5         -3.0872    0.3148    0.0000 HA        1 <0>         0.0000
     29 H6         -2.5471    0.9385    0.0000 HA        1 <0>         0.0000
     30 H7         -1.1969    1.4062    0.0000 HA        1 <0>         0.0000
     31 H8         -0.3868    1.2503    0.0000 HA        1 <0>         0.0000
     32 H9          0.4234   -1.0884    0.0000 HA        1 <0>         0.0000
     33 H10        -0.9269   -1.5561    0.0000 HA        1 <0>         0.0000
     34 H11        -1.7370   -1.4002    0.0000 HA        1 <0>         0.0000
     35 H12         2.0436   -1.4002    0.0000 HO        1 <0>         0.0000
     36 H13         3.1238   -0.1529    0.0000 HO        1 <0>         0.0000
     37 H14         2.5837    1.4062    0.0000 HO        1 <0>         0.0000
     38 H15         1.2335    0.9385    0.0000 HC        1 <0>         0.0000
     39 H16         1.2335    0.9385    0.0000 HC        1 <0>         0.0000
@<TRIPOS>BOND
     1    1    2 ar
     2    1   14 ar
     3    2    3 ar
     4    3    4 ar
     5    4    5 ar
     6    4   15 ar
     7    5    6 ar
     8    6    7 ar
     9    7    8 ar
    10    7   16 ar
    11    8    9 ar
    12    8   23 1
    13    9   10 ar
    14    9   17 1
    15   10   11 ar
    16   11   12 ar
    17   11   16 ar
    18   12   13 ar
    19   13   14 ar
    20   14   15 ar
    21   15   16 ar
    22   17   18 1
    23   17   19 1
    24   17   24 1
    25   19   20 1
    26   19   21 1
    27   19   25 1
    28   21   22 1
    29   21   23 1
    30   21   26 1
    31    1   27 1
    32    2   28 1
    33    3   29 1
    34    5   30 1
    35    6   31 1
    36   10   32 1
    37   12   33 1
    38   13   34 1
    39   18   35 1
    40   20   36 1
    41   22   37 1
    42   23   38 1
    43   23   39 1
@<TRIPOS>MOLECULE
*****
   51    54     0     0     0
SMALL
NO_CHARGES

@<TRIPOS>ATOM
      1 O1         20.0052   -3.2205    0.0000 OH        1 <0>         0.0000
      2 O2         14.5192   -6.7741    0.0000 O         1 <0>         0.0000
      3 C1         18.2539   -5.4935    0.0000 CT        1 <0>         0.0000
      4 C2         17.5394   -5.0810    0.0000 CT        1 <0>         0.0000
      5 C3         18.9683   -5.0810    0.0000 CT        1 <0>         0.0000
      6 C4         18.9683   -4.2561    0.0000 CT        1 <0>         0.0000
      7 C5         16.7887   -5.4991    0.0000 CT        1 <0>         0.0000
      8 C6         16.7820   -6.3584    0.0000 CT        1 <0>         0.0000
      9 C7         17.5394   -4.2561    0.0000 CT        1 <0>         0.0000
     10 C8         18.2539   -3.8436    0.0000 CT        1 <0>         0.0000
     11 C9         18.2671   -6.3527    0.0000 CT        1 <0>         0.0000
     12 C10        19.7489   -5.3324    0.0000 CT        1 <0>         0.0000
     13 C11        19.7489   -4.0046    0.0000 CT        1 <0>         0.0000
     14 C12        17.5262   -6.7881    0.0000 CT        1 <0>         0.0000
     15 C13        20.2303   -4.6686    0.0000 CT        1 <0>         0.0000
     16 C14        16.0241   -5.0338    0.0000 CT        1 <0>         0.0000
     17 C15        18.9683   -3.4311    0.0000 CT        1 <0>         0.0000
     18 C16        16.7950   -4.6741    0.0000 CT        1 <0>         0.0000
     19 C17        16.0104   -6.8119    0.0000 CT        1 <0>         0.0000
     20 C18        15.2421   -5.4693    0.0000 CT        1 <0>         0.0000
     21 C19        15.2352   -6.3644    0.0000 C         1 <0>         0.0000
     22 H1         18.2642   -4.5816    0.0000 HC        1 <0>         0.0000
     23 H2         17.5473   -5.9060    0.0000 HC        1 <0>         0.0000
     24 H3         19.0793   -5.9023    0.0000 HC        1 <0>         0.0000
     25 H4         16.7846   -7.0184    0.0000 HC        1 <0>         0.0000
     26 H5         20.0052   -3.2205    0.0000 HO        1 <0>         0.0000
     27 H6         17.5394   -4.2561    0.0000 HC        1 <0>         0.0000
     28 H7         17.5394   -4.2561    0.0000 HC        1 <0>         0.0000
     29 H8         18.2539   -3.8436    0.0000 HC        1 <0>         0.0000
     30 H9         18.2539   -3.8436    0.0000 HC        1 <0>         0.0000
     31 H10        18.2671   -6.3527    0.0000 HC        1 <0>         0.0000
     32 H11        18.2671   -6.3527    0.0000 HC        1 <0>         0.0000
     33 H12        19.7489   -5.3324    0.0000 HC        1 <0>         0.0000
     34 H13        19.7489   -5.3324    0.0000 HC        1 <0>         0.0000
     35 H14        19.7489   -4.0046    0.0000 H1        1 <0>         0.0000
     36 H15        17.5262   -6.7881    0.0000 HC        1 <0>         0.0000
     37 H16        17.5262   -6.7881    0.0000 HC        1 <0>         0.0000
     38 H17        20.2303   -4.6686    0.0000 HC        1 <0>         0.0000
     39 H18        20.2303   -4.6686    0.0000 HC        1 <0>         0.0000
     40 H19        16.0241   -5.0338    0.0000 HC        1 <0>         0.0000
     41 H20        16.0241   -5.0338    0.0000 HC        1 <0>         0.0000
     42 H21        18.9683   -3.4311    0.0000 HC        1 <0>         0.0000
     43 H22        18.9683   -3.4311    0.0000 HC        1 <0>         0.0000
     44 H23        18.9683   -3.4311    0.0000 HC        1 <0>         0.0000
     45 H24        16.7950   -4.6741    0.0000 HC        1 <0>         0.0000
     46 H25        16.7950   -4.6741    0.0000 HC        1 <0>         0.0000
     47 H26        16.7950   -4.6741    0.0000 HC        1 <0>         0.0000
     48 H27        16.0104   -6.8119    0.0000 HC        1 <0>         0.0000
     49 H28        16.0104   -6.8119    0.0000 HC        1 <0>         0.0000
     50 H29        15.2421   -5.4693    0.0000 HC        1 <0>         0.0000
     51 H30        15.2421   -5.4693    0.0000 HC        1 <0>         0.0000
@<TRIPOS>BOND
     1    1   13 1
     2    2   21 2
     3    3    4 1
     4    3    5 1
     5    3   11 1
     6    3   22 1
     7    4    7 1
     8    4    9 1
     9    4   23 1
    10    5    6 1
    11    5   12 1
    12    5   24 1
    13    6   10 1
    14    6   13 1
    15    6   17 1
    16    7    8 1
    17    7   16 1
    18    7   18 1
    19    8   14 1
    20    8   19 1
    21    8   25 1
    22    9   10 1
    23   11   14 1
    24   12   15 1
    25   13   15 1
    26   16   20 1
    27   19   21 1
    28   20   21 1
    29    1   26 1
    30    9   27 1
    31    9   28 1
    32   10   29 1
    33   10   30 1
    34   11   31 1
    35   11   32 1
    36   12   33 1
    37   12   34 1
    38   13   35 1
    39   14   36 1
    40   14   37 1
    41   15   38 1
    42   15   39 1
    43   16   40 1
    44   16   41 1
    45   17   42 1
    46   17   43 1
    47   17   44 1
    48   18   45 1
    49   18   46 1
    50   18   47 1
    51   19   48 1
    52   19   49 1
    53   20   50 1
    54   20   51 1
@<TRIPOS>MOLECULE
BHF
   33    36     0     0     0
SMALL
NO_CHARGES

@<TRIPOS>ATOM
      1 C1         -1.2475    0.6721    0.0000 CA        1 <0>         0.0000
      2 C2         -0.8350    1.3865    0.0000 C         1 <0>         0.0000
      3 O1         -1.2475    2.1010    0.0000 O         1 <0>         0.0000
      4 C3         -0.0100    1.3865    0.0000 CB        1 <0>         0.0000
      5 C4          0.4025    2.1010    0.0000 CA        1 <0>         0.0000
      6 C5          1.2275    2.1010    0.0000 CA        1 <0>         0.0000
      7 C6          1.6400    1.3865    0.0000 CB        1 <0>         0.0000
      8 C7          2.4650    1.3865    0.0000 CA        1 <0>         0.0000
      9 C8          2.8775    0.6721    0.0000 CA        1 <0>         0.0000
     10 C9          2.4650   -0.0424    0.0000 CA        1 <0>         0.0000
     11 C10         1.6400   -0.0424    0.0000 CA        1 <0>         0.0000
     12 C11         1.2275    0.6721    0.0000 CB        1 <0>         0.0000
     13 C12         0.4025    0.6721    0.0000 CB        1 <0>         0.0000
     14 O2         -0.0100   -0.0424    0.0000 OS        1 <0>         0.0000
     15 C13        -0.8350   -0.0424    0.0000 CP        1 <0>         0.0000
     16 C14        -1.2475   -0.7569    0.0000 CP        1 <0>         0.0000
     17 C15        -0.8350   -1.4713    0.0000 CA        1 <0>         0.0000
     18 C16        -1.2475   -2.1858    0.0000 CA        1 <0>         0.0000
     19 C17        -2.0725   -2.1858    0.0000 CA        1 <0>         0.0000
     20 C18        -2.4850   -1.4713    0.0000 CA        1 <0>         0.0000
     21 C19        -2.0725   -0.7569    0.0000 CA        1 <0>         0.0000
     22 H1         -1.2475    0.6721    0.0000 HA        1 <0>         0.0000
     23 H2          0.4025    2.1010    0.0000 HA        1 <0>         0.0000
     24 H3          1.2275    2.1010    0.0000 HA        1 <0>         0.0000
     25 H4          2.4650    1.3865    0.0000 HA        1 <0>         0.0000
     26 H5          2.8775    0.6721    0.0000 HA        1 <0>         0.0000
     27 H6          2.4650   -0.0424    0.0000 HA        1 <0>         0.0000
     28 H7          1.6400   -0.0424    0.0000 HA        1 <0>         0.0000
     29 H8         -0.8350   -1.4713    0.0000 HA        1 <0>         0.0000
     30 H9         -1.2475   -2.1858    0.0000 HA        1 <0>         0.0000
     31 H10        -2.0725   -2.1858    0.0000 HA        1 <0>         0.0000
     32 H11        -2.4850   -1.4713    0.0000 HA        1 <0>         0.0000
     33 H12        -2.0725   -0.7569    0.0000 HA        1 <0>         0.0000
@<TRIPOS>BOND
     1    1    2 1
     2    1   15 2
     3    2    3 2
     4    2    4 1
     5    4    5 ar
     6    4   13 ar
     7    5    6 ar
     8    6    7 ar
     9    7    8 ar
    10    7   12 ar
    11    8    9 ar
    12    9   10 ar
    13   10   11 ar
    14   11   12 ar
    15   12   13 ar
    16   13   14 1
    17   14   15 1
    18   15   16 1
    19   16   17 ar
    20   16   21 ar
    21   17   18 ar
    22   18   19 ar
    23   19   20 ar
    24   20   21 ar
    25    1   22 1
    26    5   23 1
    27    6   24 1
    28    8   25 1
    29    9   26 1
    30   10   27 1
    31   11   28 1
    32   17   29 1
    33   18   30 1
    34   19   31 1
    35   20   32 1
    36   21   33 1
@<TRIPOS>MOLECULE
BP4
   28    29     0     0     0
SMALL
NO_CHARGES

@<TRIPOS>ATOM
      1 C1          0.2745   -2.2010    0.0000 CT        1 <0>         0.0000
      2 C2         -0.4400   -2.6135    0.0000 C         1 <0>         0.0000
      3 O1         -0.4400   -3.4385    0.0000 O         1 <0>         0.0000
      4 C3          0.2745    0.2740    0.0000 CP        1 <0>         0.0000
      5 C4          0.9890   -0.1385    0.0000 CA        1 <0>         0.0000
      6 C5          0.9890   -0.9635    0.0000 CA        1 <0>         0.0000
      7 C6          0.2745   -1.3760    0.0000 CA        1 <0>         0.0000
      8 C7         -0.4400   -0.9635    0.0000 CA        1 <0>         0.0000
      9 C8         -0.4400   -0.1385    0.0000 CA        1 <0>         0.0000
     10 C9          0.2745    2.7490    0.0000 CA        1 <0>         0.0000
     11 C10         0.9890    1.5115    0.0000 CA        1 <0>         0.0000
     12 C11         0.2745    1.0990    0.0000 CP        1 <0>         0.0000
     13 C12         0.9890    2.3365    0.0000 CA        1 <0>         0.0000
     14 C13        -0.4400    1.5115    0.0000 CA        1 <0>         0.0000
     15 C14        -0.4400    2.3365    0.0000 CA        1 <0>         0.0000
     16 O2         -1.1545   -2.2010    0.0000 OH        1 <0>         0.0000
     17 H1          0.2745   -2.2010    0.0000 HC        1 <0>         0.0000
     18 H2          0.2745   -2.2010    0.0000 HC        1 <0>         0.0000
     19 H3          0.9890   -0.1385    0.0000 HA        1 <0>         0.0000
     20 H4          0.9890   -0.9635    0.0000 HA        1 <0>         0.0000
     21 H5         -0.4400   -0.9635    0.0000 HA        1 <0>         0.0000
     22 H6         -0.4400   -0.1385    0.0000 HA        1 <0>         0.0000
     23 H7          0.2745    2.7490    0.0000 HA        1 <0>         0.0000
     24 H8          0.9890    1.5115    0.0000 HA        1 <0>         0.0000
     25 H9          0.9890    2.3365    0.0000 HA        1 <0>         0.0000
     26 H10        -0.4400    1.5115    0.0000 HA        1 <0>         0.0000
     27 H11        -0.4400    2.3365    0.0000 HA        1 <0>         0.0000
     28 H12        -1.1545   -2.2010    0.0000 HO        1 <0>         0.0000
@<TRIPOS>BOND
     1    1    2 1
     2    1    7 1
     3    2    3 2
     4    2   16 1
     5    4    5 ar
     6    4    9 ar
     7    4   12 1
     8    5    6 ar
     9    6    7 ar
    10    7    8 ar
    11    8    9 ar
    12   10   13 ar
    13   10   15 ar
    14   11   12 ar
    15   11   13 ar
    16   12   14 ar
    17   14   15 ar
    18    1   17 1
    19    1   18 1
    20    5   19 1
    21    6   20 1
    22    8   21 1
    23    9   22 1
    24   10   23 1
    25   11   24 1
    26   13   25 1
    27   14   26 1
    28   15   27 1
    29   16   28 1
@<TRIPOS>MOLECULE
BP7
   24    25     0     0     0
SMALL
NO_CHARGES

@<TRIPOS>ATOM
      1 C1         -0.2358   -0.1300    0.0000 CP        1 <0>         0.0000
      2 C2          0.4786   -0.5425    0.0000 CA        1 <0>         0.0000
      3 C3          0.4786   -1.3675    0.0000 CA        1 <0>         0.0000
      4 O1          1.1931   -1.7800    0.0000 OH        1 <0>         0.0000
      5 C4         -0.2358   -1.7800    0.0000 CA        1 <0>         0.0000
      6 O2         -0.2358   -2.6050    0.0000 OH        1 <0>         0.0000
      7 C5         -0.9503   -1.3675    0.0000 CA        1 <0>         0.0000
      8 C6         -0.9503   -0.5425    0.0000 CA        1 <0>         0.0000
      9 C7         -0.2358    0.6950    0.0000 CP        1 <0>         0.0000
     10 C8         -0.9503    1.1075    0.0000 CA        1 <0>         0.0000
     11 C9         -0.9503    1.9325    0.0000 CA        1 <0>         0.0000
     12 C10        -0.2358    2.3450    0.0000 CA        1 <0>         0.0000
     13 C11         0.4786    1.9325    0.0000 CA        1 <0>         0.0000
     14 C12         0.4786    1.1075    0.0000 CA        1 <0>         0.0000
     15 H1          0.4786   -0.5425    0.0000 HA        1 <0>         0.0000
     16 H2          1.1931   -1.7800    0.0000 HO        1 <0>         0.0000
     17 H3         -0.2358   -2.6050    0.0000 HO        1 <0>         0.0000
     18 H4         -0.9503   -1.3675    0.0000 HA        1 <0>         0.0000
     19 H5         -0.9503   -0.5425    0.0000 HA        1 <0>         0.0000
     20 H6         -0.9503    1.1075    0.0000 HA        1 <0>         0.0000
     21 H7         -0.9503    1.9325    0.0000 HA        1 <0>         0.0000
     22 H8         -0.2358    2.3450    0.0000 HA        1 <0>         0.0000
     23 H9          0.4786    1.9325    0.0000 HA        1 <0>         0.0000
     24 H10         0.4786    1.1075    0.0000 HA        1 <0>         0.0000
@<TRIPOS>BOND
     1    1    2 ar
     2    1    8 ar
     3    1    9 1
     4    2    3 ar
     5    3    4 1
     6    3    5 ar
     7    5    6 1
     8    5    7 ar
     9    7    8 ar
    10    9   10 ar
    11    9   14 ar
    12   10   11 ar
    13   11   12 ar
    14   12   13 ar
    15   13   14 ar
    16    2   15 1
    17    4   16 1
    18    6   17 1
    19    7   18 1
    20    8   19 1
    21   10   20 1
    22   11   21 1
    23   12   22 1
    24   13   23 1
    25   14   24 1
@<TRIPOS>MOLECULE
BPI
   37    40     0     0     0
SMALL
NO_CHARGES

@<TRIPOS>ATOM
      1 C1          0.3336    0.7118    0.0000 CT        1 <0>         0.0000
      2 C2          1.0480    1.1243    0.0000 CT        1 <0>         0.0000
      3 O1          1.0480    1.9493    0.0000 OH        1 <0>         0.0000
      4 C3          1.7625    0.7118    0.0000 CT        1 <0>         0.0000
      5 O2          2.4770    1.1243    0.0000 OH        1 <0>         0.0000
      6 C4          1.7625   -0.1132    0.0000 CT        1 <0>         0.0000
      7 O3          2.4770   -0.5257    0.0000 OH        1 <0>         0.0000
      8 C5          1.0480   -1.3507    0.0000 CA        1 <0>         0.0000
      9 C6          0.3336   -1.7632    0.0000 CA        1 <0>         0.0000
     10 C7         -1.0954   -1.7632    0.0000 CA        1 <0>         0.0000
     11 C8         -1.8099   -1.3507    0.0000 CA        1 <0>         0.0000
     12 C9         -2.5243   -0.1132    0.0000 CA        1 <0>         0.0000
     13 C10        -2.5243    0.7118    0.0000 CA        1 <0>         0.0000
     14 C11        -1.8099    1.1243    0.0000 CA        1 <0>         0.0000
     15 C12        -1.0954    0.7118    0.0000 CA        1 <0>         0.0000
     16 C13         0.3336   -0.1132    0.0000 CA        1 <0>         0.0000
     17 C14         1.0480   -0.5257    0.0000 CA        1 <0>         0.0000
     18 C15        -0.3809   -1.3507    0.0000 CB        1 <0>         0.0000
     19 C16        -0.3809   -0.5257    0.0000 CB        1 <0>         0.0000
     20 C17        -1.0954   -0.1132    0.0000 CB        1 <0>         0.0000
     21 C18        -1.8099   -0.5257    0.0000 CB        1 <0>         0.0000
     22 H1          0.5423    1.4163    0.0000 H1        1 <0>         0.0000
     23 H2          1.7625    1.2957    0.0000 H1        1 <0>         0.0000
     24 H3          2.2682    0.1788    0.0000 H1        1 <0>         0.0000
     25 H4          0.3336    0.7118    0.0000 HC        1 <0>         0.0000
     26 H5          0.3336    0.7118    0.0000 HC        1 <0>         0.0000
     27 H6          1.0480    1.9493    0.0000 HO        1 <0>         0.0000
     28 H7          2.4770    1.1243    0.0000 HO        1 <0>         0.0000
     29 H8          2.4770   -0.5257    0.0000 HO        1 <0>         0.0000
     30 H9          1.0480   -1.3507    0.0000 HA        1 <0>         0.0000
     31 H10         0.3336   -1.7632    0.0000 HA        1 <0>         0.0000
     32 H11        -1.0954   -1.7632    0.0000 HA        1 <0>         0.0000
     33 H12        -1.8099   -1.3507    0.0000 HA        1 <0>         0.0000
     34 H13        -2.5243   -0.1132    0.0000 HA        1 <0>         0.0000
     35 H14        -2.5243    0.7118    0.0000 HA        1 <0>         0.0000
     36 H15        -1.8099    1.1243    0.0000 HA        1 <0>         0.0000
     37 H16        -1.0954    0.7118    0.0000 HA        1 <0>         0.0000
@<TRIPOS>BOND
     1    1    2 1
     2    1   16 1
     3    2    3 1
     4    2    4 1
     5    2   22 1
     6    4    5 1
     7    4    6 1
     8    4   23 1
     9    6    7 1
    10    6   17 1
    11    6   24 1
    12    8    9 ar
    13    8   17 ar
    14    9   18 ar
    15   10   11 ar
    16   10   18 ar
    17   11   21 ar
    18   12   13 ar
    19   12   21 ar
    20   13   14 ar
    21   14   15 ar
    22   15   20 ar
    23   16   17 ar
    24   16   19 ar
    25   18   19 ar
    26   19   20 ar
    27   20   21 ar
    28    1   25 1
    29    1   26 1
    30    3   27 1
    31    5   28 1
    32    7   29 1
    33    8   30 1
    34    9   31 1
    35   10   32 1
    36   11   33 1
    37   12   34 1
    38   13   35 1
    39   14   36 1
    40   15   37 1
@<TRIPOS>MOLECULE
BPZ
   40    42     0     0     0
SMALL
NO_CHARGES

@<TRIPOS>ATOM
      1 O1          0.2357    3.1151    0.0000 OH        1 <0>         0.0000
      2 C1          0.2357    2.2901    0.0000 CA        1 <0>         0.0000
      3 C2         -0.4788    1.8776    0.0000 CA        1 <0>         0.0000
      4 C3         -0.4788    1.0526    0.0000 CA        1 <0>         0.0000
      5 C4          0.9502    1.8776    0.0000 CA        1 <0>         0.0000
      6 C5          0.9502    1.0526    0.0000 CA        1 <0>         0.0000
      7 C6          0.2357    0.6401    0.0000 CA        1 <0>         0.0000
      8 C7          0.2357   -0.1849    0.0000 CT        1 <0>         0.0000
      9 C8         -0.0465   -0.9602    0.0000 CT        1 <0>         0.0000
     10 C9          0.4838   -1.5922    0.0000 CT        1 <0>         0.0000
     11 C10         1.0482   -0.0417    0.0000 CT        1 <0>         0.0000
     12 C11         1.5785   -0.6737    0.0000 CT        1 <0>         0.0000
     13 C12         1.2963   -1.4489    0.0000 CT        1 <0>         0.0000
     14 C13        -0.5768   -0.0417    0.0000 CA        1 <0>         0.0000
     15 C14        -0.8589    0.7336    0.0000 CA        1 <0>         0.0000
     16 C15        -1.6714    0.8768    0.0000 CA        1 <0>         0.0000
     17 C16        -2.2017    0.2448    0.0000 CA        1 <0>         0.0000
     18 O2         -3.0142    0.3881    0.0000 OH        1 <0>         0.0000
     19 C17        -1.9195   -0.5304    0.0000 CA        1 <0>         0.0000
     20 C18        -1.1071   -0.6737    0.0000 CA        1 <0>         0.0000
     21 H1          0.2357    3.1151    0.0000 HO        1 <0>         0.0000
     22 H2         -0.4788    1.8776    0.0000 HA        1 <0>         0.0000
     23 H3         -0.4788    1.0526    0.0000 HA        1 <0>         0.0000
     24 H4          0.9502    1.8776    0.0000 HA        1 <0>         0.0000
     25 H5          0.9502    1.0526    0.0000 HA        1 <0>         0.0000
     26 H6         -0.0465   -0.9602    0.0000 HC        1 <0>         0.0000
     27 H7         -0.0465   -0.9602    0.0000 HC        1 <0>         0.0000
     28 H8          0.4838   -1.5922    0.0000 HC        1 <0>         0.0000
     29 H9          0.4838   -1.5922    0.0000 HC        1 <0>         0.0000
     30 H10         1.0482   -0.0417    0.0000 HC        1 <0>         0.0000
     31 H11         1.0482   -0.0417    0.0000 HC        1 <0>         0.0000
     32 H12         1.5785   -0.6737    0.0000 HC        1 <0>         0.0000
     33 H13         1.5785   -0.6737    0.0000 HC        1 <0>         0.0000
     34 H14         1.2963   -1.4489    0.0000 HC        1 <0>         0.0000
     35 H15         1.2963   -1.4489    0.0000 HC        1 <0>         0.0000
     36 H16        -0.8589    0.7336    0.0000 HA        1 <0>         0.0000
     37 H17        -1.6714    0.8768    0.0000 HA        1 <0>         0.0000
     38 H18        -3.0142    0.3881    0.0000 HO        1 <0>         0.0000
     39 H19        -1.9195   -0.5304    0.0000 HA        1 <0>         0.0000
     40 H20        -1.1071   -0.6737    0.0000 HA        1 <0>         0.0000
@<TRIPOS>BOND
     1    1    2 1
     2    2    5 ar
     3    2    3 ar
     4    3    4 ar
     5    4    7 ar
     6    5    6 ar
     7    6    7 ar
     8    7    8 1
     9    8   14 1
    10    8   11 1
    11    8    9 1
    12    9   10 1
    13   10   13 1
    14   11   12 1
    15   12   13 1
    16   14   20 ar
    17   14   15 ar
    18   15   16 ar
    19   16   17 ar
    20   17   18 1
    21   17   19 ar
    22   19   20 ar
    23    1   21 1
    24    3   22 1
    25    4   23 1
    26    5   24 1
    27    6   25 1
    28    9   26 1
    29    9   27 1
    30   10   28 1
    31   10   29 1
    32   11   30 1
    33   11   31 1
    34   12   32 1
    35   12   33 1
    36   13   34 1
    37   13   35 1
    38   15   36 1
    39   16   37 1
    40   18   38 1
    41   19   39 1
    42   20   40 1
@<TRIPOS>MOLECULE
BVL
   47    48     0     0     0
SMALL
NO_CHARGES

@<TRIPOS>ATOM
      1 C1         -3.2984   -0.8559    0.0000 CA        1 <0>         0.0000
      2 C2         -4.0129   -2.0934    0.0000 CA        1 <0>         0.0000
      3 C3         -3.2984   -2.5059    0.0000 CA        1 <0>         0.0000
      4 C4         -2.5840   -2.0934    0.0000 CA        1 <0>         0.0000
      5 O1         -1.1550    1.2066    0.0000 O         1 <0>         0.0000
      6 C5         -1.1550    0.3816    0.0000 C         1 <0>         0.0000
      7 C6         -1.8695   -0.0309    0.0000 CM        1 <0>         0.0000
      8 C7         -1.8695   -0.8559    0.0000 CM        1 <0>         0.0000
      9 C8         -2.5840   -1.2684    0.0000 CA        1 <0>         0.0000
     10 C9         -4.0129   -1.2684    0.0000 CA        1 <0>         0.0000
     11 O2         -4.7274   -2.5059    0.0000 OH        1 <0>         0.0000
     12 C10        -0.4406   -0.0309    0.0000 CA        1 <0>         0.0000
     13 C11        -0.4406   -0.8559    0.0000 CA        1 <0>         0.0000
     14 O3         -1.1550   -1.2684    0.0000 OH        1 <0>         0.0000
     15 C12         0.2739   -1.2684    0.0000 CA        1 <0>         0.0000
     16 C13         0.9884   -0.8559    0.0000 CA        1 <0>         0.0000
     17 O4          1.7029   -1.2684    0.0000 OS        1 <0>         0.0000
     18 C14         2.4173   -0.8559    0.0000 CT        1 <0>         0.0000
     19 C15         0.9884   -0.0309    0.0000 CA        1 <0>         0.0000
     20 C16         0.2739    0.3816    0.0000 CA        1 <0>         0.0000
     21 C17         1.7029    0.3816    0.0000 CT        1 <0>         0.0000
     22 C18         1.7029    1.2066    0.0000 CM        1 <0>         0.0000
     23 C19         2.4173    1.6191    0.0000 CM        1 <0>         0.0000
     24 C20         2.4173    2.4441    0.0000 CT        1 <0>         0.0000
     25 C21         3.1318    1.2066    0.0000 CT        1 <0>         0.0000
     26 H1         -3.2984   -0.8559    0.0000 HA        1 <0>         0.0000
     27 H2         -3.2984   -2.5059    0.0000 HA        1 <0>         0.0000
     28 H3         -2.5840   -2.0934    0.0000 HA        1 <0>         0.0000
     29 H4         -1.8695   -0.0309    0.0000 HA        1 <0>         0.0000
     30 H5         -1.8695   -0.8559    0.0000 HA        1 <0>         0.0000
     31 H6         -4.0129   -1.2684    0.0000 HA        1 <0>         0.0000
     32 H7         -4.7274   -2.5059    0.0000 HO        1 <0>         0.0000
     33 H8         -1.1550   -1.2684    0.0000 HO        1 <0>         0.0000
     34 H9          0.2739   -1.2684    0.0000 HA        1 <0>         0.0000
     35 H10         2.4173   -0.8559    0.0000 H1        1 <0>         0.0000
     36 H11         2.4173   -0.8559    0.0000 H1        1 <0>         0.0000
     37 H12         2.4173   -0.8559    0.0000 H1        1 <0>         0.0000
     38 H13         0.2739    0.3816    0.0000 HA        1 <0>         0.0000
     39 H14         1.7029    0.3816    0.0000 HC        1 <0>         0.0000
     40 H15         1.7029    0.3816    0.0000 HC        1 <0>         0.0000
     41 H16         1.7029    1.2066    0.0000 HA        1 <0>         0.0000
     42 H17         2.4173    2.4441    0.0000 HC        1 <0>         0.0000
     43 H18         2.4173    2.4441    0.0000 HC        1 <0>         0.0000
     44 H19         2.4173    2.4441    0.0000 HC        1 <0>         0.0000
     45 H20         3.1318    1.2066    0.0000 HC        1 <0>         0.0000
     46 H21         3.1318    1.2066    0.0000 HC        1 <0>         0.0000
     47 H22         3.1318    1.2066    0.0000 HC        1 <0>         0.0000
@<TRIPOS>BOND
     1    1    9 ar
     2    2    3 ar
     3    3    4 ar
     4    6    7 1
     5    5    6 2
     6    7    8 2
     7    8    9 1
     8    4    9 ar
     9    1   10 ar
    10    2   10 ar
    11    2   11 1
    12   12   20 ar
    13    6   12 1
    14   12   13 ar
    15   13   14 1
    16   15   16 ar
    17   13   15 ar
    18   16   19 ar
    19   16   17 1
    20   17   18 1
    21   19   21 1
    22   19   20 ar
    23   21   22 1
    24   22   23 2
    25   23   25 1
    26   23   24 1
    27    1   26 1
    28    3   27 1
    29    4   28 1
    30    7   29 1
    31    8   30 1
    32   10   31 1
    33   11   32 1
    34   14   33 1
    35   15   34 1
    36   18   35 1
    37   18   36 1
    38   18   37 1
    39   20   38 1
    40   21   39 1
    41   21   40 1
    42   22   41 1
    43   24   42 1
    44   24   43 1
    45   24   44 1
    46   25   45 1
    47   25   46 1
    48   25   47 1
@<TRIPOS>MOLECULE
BZS
   27    27     0     0     0
SMALL
NO_CHARGES

@<TRIPOS>ATOM
      1 C1         -1.9841   -0.3406    0.0000 C         1 <0>         0.0000
      2 C2         -1.2697   -0.7531    0.0000 CT        1 <0>         0.0000
      3 C3         -0.5552   -0.3406    0.0000 CT        1 <0>         0.0000
      4 C4         -0.5552    0.4844    0.0000 C         1 <0>         0.0000
      5 C5          0.1593   -0.7531    0.0000 CT        1 <0>         0.0000
      6 C6          0.8737   -0.3406    0.0000 CA        1 <0>         0.0000
      7 C7          0.8737    0.4844    0.0000 CA        1 <0>         0.0000
      8 C8          1.5882   -0.7531    0.0000 CA        1 <0>         0.0000
      9 C9          1.5882    0.8969    0.0000 CA        1 <0>         0.0000
     10 C10         2.3027   -0.3406    0.0000 CA        1 <0>         0.0000
     11 C11         2.3027    0.4844    0.0000 CA        1 <0>         0.0000
     12 O1         -2.6986   -0.7531    0.0000 O         1 <0>         0.0000
     13 O2         -1.9841    0.4844    0.0000 OH        1 <0>         0.0000
     14 O3          0.1593    0.8969    0.0000 O         1 <0>         0.0000
     15 O4         -1.2697    0.8969    0.0000 OH        1 <0>         0.0000
     16 H1         -1.0609   -0.0486    0.0000 HC        1 <0>         0.0000
     17 H2         -1.2697   -0.7531    0.0000 HC        1 <0>         0.0000
     18 H3         -1.2697   -0.7531    0.0000 HC        1 <0>         0.0000
     19 H4          0.1593   -0.7531    0.0000 HC        1 <0>         0.0000
     20 H5          0.1593   -0.7531    0.0000 HC        1 <0>         0.0000
     21 H6          0.8737    0.4844    0.0000 HA        1 <0>         0.0000
     22 H7          1.5882   -0.7531    0.0000 HA        1 <0>         0.0000
     23 H8          1.5882    0.8969    0.0000 HA        1 <0>         0.0000
     24 H9          2.3027   -0.3406    0.0000 HA        1 <0>         0.0000
     25 H10         2.3027    0.4844    0.0000 HA        1 <0>         0.0000
     26 H11        -1.9841    0.4844    0.0000 HO        1 <0>         0.0000
     27 H12        -1.2697    0.8969    0.0000 HO        1 <0>         0.0000
@<TRIPOS>BOND
     1    1    2 1
     2    1   12 2
     3    1   13 1
     4    2    3 1
     5    3    4 1
     6    3    5 1
     7    3   16 1
     8    4   14 2
     9    4   15 1
    10    5    6 1
    11    6    7 ar
    12    6    8 ar
    13    7    9 ar
    14    8   10 ar
    15    9   11 ar
    16   10   11 ar
    17    2   17 1
    18    2   18 1
    19    5   19 1
    20    5   20 1
    21    7   21 1
    22    8   22 1
    23    9   23 1
    24   10   24 1
    25   11   25 1
    26   13   26 1
    27   15   27 1
@<TRIPOS>MOLECULE
C1F
   33    33     0     0     0
SMALL
NO_CHARGES

@<TRIPOS>ATOM
      1 C1          0.8984    0.3781    0.0000 CC        1 <0>         0.0000
      2 C2          0.6434   -0.4066    0.0000 CC        1 <0>         0.0000
      3 C3         -0.1816   -0.4066    0.0000 CW        1 <0>         0.0000
      4 C4         -0.6665   -1.0740    0.0000 CT        1 <0>         0.0000
      5 C5          1.6830    0.6330    0.0000 CT        1 <0>         0.0000
      6 O1         -0.4365    0.3781    0.0000 OS        1 <0>         0.0000
      7 C6          0.9454    2.9255    0.0000 CT        1 <0>         0.0000
      8 C7         -0.3309   -1.8277    0.0000 CT        1 <0>         0.0000
      9 C8          0.2309    1.6880    0.0000 CT        1 <0>         0.0000
     10 C9          0.2309    0.8630    0.0000 CW        1 <0>         0.0000
     11 C10         0.9454    2.1005    0.0000 CT        1 <0>         0.0000
     12 C11        -0.8159   -2.4951    0.0000 C         1 <0>         0.0000
     13 O2          0.7928   -1.8277    0.0000 O         1 <0>         0.0000
     14 C12         1.1283   -1.0740    0.0000 C         1 <0>         0.0000
     15 O3          1.9488   -0.9878    0.0000 OH        1 <0>         0.0000
     16 O4         -0.4803   -3.2488    0.0000 O         1 <0>         0.0000
     17 O5         -1.6363   -2.4089    0.0000 OH        1 <0>         0.0000
     18 H1         -0.6665   -1.0740    0.0000 HC        1 <0>         0.0000
     19 H2         -0.6665   -1.0740    0.0000 HC        1 <0>         0.0000
     20 H3          1.6830    0.6330    0.0000 HC        1 <0>         0.0000
     21 H4          1.6830    0.6330    0.0000 HC        1 <0>         0.0000
     22 H5          1.6830    0.6330    0.0000 HC        1 <0>         0.0000
     23 H6          0.9454    2.9255    0.0000 HC        1 <0>         0.0000
     24 H7          0.9454    2.9255    0.0000 HC        1 <0>         0.0000
     25 H8          0.9454    2.9255    0.0000 HC        1 <0>         0.0000
     26 H9         -0.3309   -1.8277    0.0000 HC        1 <0>         0.0000
     27 H10        -0.3309   -1.8277    0.0000 HC        1 <0>         0.0000
     28 H11         0.2309    1.6880    0.0000 HC        1 <0>         0.0000
     29 H12         0.2309    1.6880    0.0000 HC        1 <0>         0.0000
     30 H13         0.9454    2.1005    0.0000 HC        1 <0>         0.0000
     31 H14         0.9454    2.1005    0.0000 HC        1 <0>         0.0000
     32 H15         1.9488   -0.9878    0.0000 HO        1 <0>         0.0000
     33 H16        -1.6363   -2.4089    0.0000 HO        1 <0>         0.0000
@<TRIPOS>BOND
     1    1    2 1
     2    1    5 1
     3    1   10 2
     4    2    3 2
     5    2   14 1
     6    3    4 1
     7    3    6 1
     8    4    8 1
     9    6   10 1
    10    7   11 1
    11    8   12 1
    12    9   10 1
    13    9   11 1
    14   12   16 2
    15   12   17 1
    16   13   14 2
    17   14   15 1
    18    4   18 1
    19    4   19 1
    20    5   20 1
    21    5   21 1
    22    5   22 1
    23    7   23 1
    24    7   24 1
    25    7   25 1
    26    8   26 1
    27    8   27 1
    28    9   28 1
    29    9   29 1
    30   11   30 1
    31   11   31 1
    32   15   32 1
    33   17   33 1
@<TRIPOS>MOLECULE
CI2
   55    58     0     0     0
SMALL
NO_CHARGES

@<TRIPOS>ATOM
      1 C1         -3.1808   -0.8248    0.0000 CT        1 <0>         0.0000
      2 C2         -2.3635   -0.9377    0.0000 C         1 <0>         0.0000
      3 O1         -2.0527   -1.7019    0.0000 O         1 <0>         0.0000
      4 C3         -1.8572   -0.2864    0.0000 CT        1 <0>         0.0000
      5 C4         -2.0865    0.5061    0.0000 CT        1 <0>         0.0000
      6 C5         -1.4037    0.9691    0.0000 CT        1 <0>         0.0000
      7 C6         -0.7523    0.4627    0.0000 CT        1 <0>         0.0000
      8 C7          0.0598    0.6080    0.0000 CT        1 <0>         0.0000
      9 C8          0.3401    1.3839    0.0000 CT        1 <0>         0.0000
     10 C9          1.1522    1.5291    0.0000 CT        1 <0>         0.0000
     11 C10         1.6840    0.8984    0.0000 CT        1 <0>         0.0000
     12 C11         2.4962    1.0436    0.0000 CT        1 <0>         0.0000
     13 C12         3.0280    0.4129    0.0000 C         1 <0>         0.0000
     14 O2          3.8401    0.5581    0.0000 O         1 <0>         0.0000
     15 C13         2.7477   -0.3630    0.0000 CT        1 <0>         0.0000
     16 C14         1.9356   -0.5082    0.0000 CT        1 <0>         0.0000
     17 C15         1.4037    0.1225    0.0000 CT        1 <0>         0.0000
     18 C16         1.1234   -0.6535    0.0000 CT        1 <0>         0.0000
     19 C17         0.5916   -0.0227    0.0000 CT        1 <0>         0.0000
     20 C18         0.3113   -0.7987    0.0000 CT        1 <0>         0.0000
     21 C19        -0.5008   -0.9439    0.0000 CT        1 <0>         0.0000
     22 C20        -1.0326   -0.3132    0.0000 CT        1 <0>         0.0000
     23 C21        -1.3925   -1.0556    0.0000 CT        1 <0>         0.0000
     24 H1         -2.4307   -0.1763    0.0000 HC        1 <0>         0.0000
     25 H2         -0.6124    1.0297    0.0000 HC        1 <0>         0.0000
     26 H3         -0.3166    1.0544    0.0000 HC        1 <0>         0.0000
     27 H4          1.8824    1.4476    0.0000 HC        1 <0>         0.0000
     28 H5          0.9680   -0.4692    0.0000 HC        1 <0>         0.0000
     29 H6         -3.1808   -0.8248    0.0000 HC        1 <0>         0.0000
     30 H7         -3.1808   -0.8248    0.0000 HC        1 <0>         0.0000
     31 H8         -3.1808   -0.8248    0.0000 HC        1 <0>         0.0000
     32 H9         -2.0865    0.5061    0.0000 HC        1 <0>         0.0000
     33 H10        -2.0865    0.5061    0.0000 HC        1 <0>         0.0000
     34 H11        -1.4037    0.9691    0.0000 HC        1 <0>         0.0000
     35 H12        -1.4037    0.9691    0.0000 HC        1 <0>         0.0000
     36 H13         0.3401    1.3839    0.0000 HC        1 <0>         0.0000
     37 H14         0.3401    1.3839    0.0000 HC        1 <0>         0.0000
     38 H15         1.1522    1.5291    0.0000 HC        1 <0>         0.0000
     39 H16         1.1522    1.5291    0.0000 HC        1 <0>         0.0000
     40 H17         2.4962    1.0436    0.0000 HC        1 <0>         0.0000
     41 H18         2.4962    1.0436    0.0000 HC        1 <0>         0.0000
     42 H19         2.7477   -0.3630    0.0000 HC        1 <0>         0.0000
     43 H20         2.7477   -0.3630    0.0000 HC        1 <0>         0.0000
     44 H21         1.9356   -0.5082    0.0000 HC        1 <0>         0.0000
     45 H22         1.9356   -0.5082    0.0000 HC        1 <0>         0.0000
     46 H23         1.1234   -0.6535    0.0000 HC        1 <0>         0.0000
     47 H24         1.1234   -0.6535    0.0000 HC        1 <0>         0.0000
     48 H25         1.1234   -0.6535    0.0000 HC        1 <0>         0.0000
     49 H26         0.3113   -0.7987    0.0000 HC        1 <0>         0.0000
     50 H27         0.3113   -0.7987    0.0000 HC        1 <0>         0.0000
     51 H28        -0.5008   -0.9439    0.0000 HC        1 <0>         0.0000
     52 H29        -0.5008   -0.9439    0.0000 HC        1 <0>         0.0000
     53 H30        -1.3925   -1.0556    0.0000 HC        1 <0>         0.0000
     54 H31        -1.3925   -1.0556    0.0000 HC        1 <0>         0.0000
     55 H32        -1.3925   -1.0556    0.0000 HC        1 <0>         0.0000
@<TRIPOS>BOND
     1    1    2 1
     2    2    3 2
     3    2    4 1
     4    4    5 1
     5    4   22 1
     6    4   24 1
     7    5    6 1
     8    6    7 1
     9    7    8 1
    10    7   22 1
    11    7   25 1
    12    8    9 1
    13    8   19 1
    14    8   26 1
    15    9   10 1
    16   10   11 1
    17   11   12 1
    18   11   17 1
    19   11   27 1
    20   12   13 1
    21   13   14 2
    22   13   15 1
    23   15   16 1
    24   16   17 1
    25   17   18 1
    26   17   19 1
    27   19   20 1
    28   19   28 1
    29   20   21 1
    30   21   22 1
    31   22   23 1
    32    1   29 1
    33    1   30 1
    34    1   31 1
    35    5   32 1
    36    5   33 1
    37    6   34 1
    38    6   35 1
    39    9   36 1
    40    9   37 1
    41   10   38 1
    42   10   39 1
    43   12   40 1
    44   12   41 1
    45   15   42 1
    46   15   43 1
    47   16   44 1
    48   16   45 1
    49   18   46 1
    50   18   47 1
    51   18   48 1
    52   20   49 1
    53   20   50 1
    54   21   51 1
    55   21   52 1
    56   23   53 1
    57   23   54 1
    58   23   55 1
@<TRIPOS>MOLECULE
D1N
   20    21     0     0     0
SMALL
NO_CHARGES

@<TRIPOS>ATOM
      1 O1         -0.9076   -1.0564    0.0000 OH        1 <0>         0.0000
      2 C1         -0.1931   -1.4689    0.0000 CA        1 <0>         0.0000
      3 C2         -0.1931   -2.2939    0.0000 CA        1 <0>         0.0000
      4 C3          0.5213   -2.7064    0.0000 CA        1 <0>         0.0000
      5 C4          1.2358   -2.2939    0.0000 CB        1 <0>         0.0000
      6 C5          1.2358   -1.4689    0.0000 CB        1 <0>         0.0000
      7 C6          0.5213   -1.0564    0.0000 CA        1 <0>         0.0000
      8 O2          0.5213   -0.2314    0.0000 OH        1 <0>         0.0000
      9 C7          1.9503   -1.0564    0.0000 CA        1 <0>         0.0000
     10 C8          2.6648   -1.4689    0.0000 CA        1 <0>         0.0000
     11 C9          2.6648   -2.2939    0.0000 CA        1 <0>         0.0000
     12 C10         1.9503   -2.7064    0.0000 CA        1 <0>         0.0000
     13 H1         -0.9076   -1.0564    0.0000 HO        1 <0>         0.0000
     14 H2         -0.1931   -2.2939    0.0000 HA        1 <0>         0.0000
     15 H3          0.5213   -2.7064    0.0000 HA        1 <0>         0.0000
     16 H4          0.5213   -0.2314    0.0000 HO        1 <0>         0.0000
     17 H5          1.9503   -1.0564    0.0000 HA        1 <0>         0.0000
     18 H6          2.6648   -1.4689    0.0000 HA        1 <0>         0.0000
     19 H7          2.6648   -2.2939    0.0000 HA        1 <0>         0.0000
     20 H8          1.9503   -2.7064    0.0000 HA        1 <0>         0.0000
@<TRIPOS>BOND
     1    1    2 1
     2    2    3 ar
     3    2    7 ar
     4    3    4 ar
     5    4    5 ar
     6    5    6 ar
     7    5   12 ar
     8    6    7 ar
     9    6    9 ar
    10    7    8 1
    11    9   10 ar
    12   10   11 ar
    13   11   12 ar
    14    1   13 1
    15    3   14 1
    16    4   15 1
    17    8   16 1
    18    9   17 1
    19   10   18 1
    20   11   19 1
    21   12   20 1
@<TRIPOS>MOLECULE
DA8
   67    68     0     0     0
SMALL
NO_CHARGES

@<TRIPOS>ATOM
      1 C1          4.0910   -0.1250    0.0000 CT        1 <0>         0.0000
      2 C2          3.3765   -0.5375    0.0000 CT        1 <0>         0.0000
      3 C3          2.6620   -0.1250    0.0000 CT        1 <0>         0.0000
      4 C4          1.9476   -0.5375    0.0000 CT        1 <0>         0.0000
      5 C5          1.2331   -0.1250    0.0000 CT        1 <0>         0.0000
      6 C6          0.5186   -0.5375    0.0000 CT        1 <0>         0.0000
      7 O1         -0.1959   -0.1250    0.0000 OS        1 <0>         0.0000
      8 C7         -0.9103   -0.5375    0.0000 CT        1 <0>         0.0000
      9 O2         -0.9103   -1.3625    0.0000 OS        1 <0>         0.0000
     10 C8         -1.6248   -1.7750    0.0000 CT        1 <0>         0.0000
     11 C9         -1.6248   -2.6000    0.0000 CT        1 <0>         0.0000
     12 O3         -2.3393   -3.0125    0.0000 OH        1 <0>         0.0000
     13 C10        -2.3393   -1.3625    0.0000 CT        1 <0>         0.0000
     14 O4         -3.0537   -1.7750    0.0000 OH        1 <0>         0.0000
     15 C11        -2.3393   -0.5375    0.0000 CT        1 <0>         0.0000
     16 C12        -1.6248   -0.1250    0.0000 CT        1 <0>         0.0000
     17 O5         -1.6248    0.7000    0.0000 OS        1 <0>         0.0000
     18 C13        -2.3393    1.1125    0.0000 CT        1 <0>         0.0000
     19 O6         -3.0537    0.7000    0.0000 OS        1 <0>         0.0000
     20 C14        -3.7682    1.1125    0.0000 CT        1 <0>         0.0000
     21 C15        -4.4827    0.7000    0.0000 CT        1 <0>         0.0000
     22 C16        -3.7682    1.9375    0.0000 CT        1 <0>         0.0000
     23 O7         -4.4827    2.3500    0.0000 OH        1 <0>         0.0000
     24 C17        -3.0537    2.3500    0.0000 CT        1 <0>         0.0000
     25 O8         -3.0537    3.1750    0.0000 OH        1 <0>         0.0000
     26 C18        -2.3393    1.9375    0.0000 CT        1 <0>         0.0000
     27 O9         -1.6248    2.3500    0.0000 OH        1 <0>         0.0000
     28 C19         4.8054   -0.5375    0.0000 CT        1 <0>         0.0000
     29 H1         -0.4046   -0.8295    0.0000 H2        1 <0>         0.0000
     30 H2         -1.1191   -2.0670    0.0000 H1        1 <0>         0.0000
     31 H3         -2.3393   -1.9465    0.0000 H1        1 <0>         0.0000
     32 H4         -1.1191    0.1669    0.0000 H1        1 <0>         0.0000
     33 H5         -2.3393    0.5285    0.0000 H2        1 <0>         0.0000
     34 H6         -3.7682    0.5285    0.0000 H1        1 <0>         0.0000
     35 H7         -4.2739    1.6455    0.0000 H1        1 <0>         0.0000
     36 H8         -3.5594    2.6419    0.0000 H1        1 <0>         0.0000
     37 H9         -1.8336    1.6455    0.0000 H1        1 <0>         0.0000
     38 C20         5.5199   -0.1250    0.0000 CT        1 <0>         0.0000
     39 H10         4.0910   -0.1250    0.0000 HC        1 <0>         0.0000
     40 H11         4.0910   -0.1250    0.0000 HC        1 <0>         0.0000
     41 H12         3.3765   -0.5375    0.0000 HC        1 <0>         0.0000
     42 H13         3.3765   -0.5375    0.0000 HC        1 <0>         0.0000
     43 H14         2.6620   -0.1250    0.0000 HC        1 <0>         0.0000
     44 H15         2.6620   -0.1250    0.0000 HC        1 <0>         0.0000
     45 H16         1.9476   -0.5375    0.0000 HC        1 <0>         0.0000
     46 H17         1.9476   -0.5375    0.0000 HC        1 <0>         0.0000
     47 H18         1.2331   -0.1250    0.0000 HC        1 <0>         0.0000
     48 H19         1.2331   -0.1250    0.0000 HC        1 <0>         0.0000
     49 H20         0.5186   -0.5375    0.0000 H1        1 <0>         0.0000
     50 H21         0.5186   -0.5375    0.0000 H1        1 <0>         0.0000
     51 H22        -1.6248   -2.6000    0.0000 H1        1 <0>         0.0000
     52 H23        -1.6248   -2.6000    0.0000 H1        1 <0>         0.0000
     53 H24        -2.3393   -3.0125    0.0000 HO        1 <0>         0.0000
     54 H25        -3.0537   -1.7750    0.0000 HO        1 <0>         0.0000
     55 H26        -2.3393   -0.5375    0.0000 HC        1 <0>         0.0000
     56 H27        -2.3393   -0.5375    0.0000 HC        1 <0>         0.0000
     57 H28        -4.4827    0.7000    0.0000 HC        1 <0>         0.0000
     58 H29        -4.4827    0.7000    0.0000 HC        1 <0>         0.0000
     59 H30        -4.4827    0.7000    0.0000 HC        1 <0>         0.0000
     60 H31        -4.4827    2.3500    0.0000 HO        1 <0>         0.0000
     61 H32        -3.0537    3.1750    0.0000 HO        1 <0>         0.0000
     62 H33        -1.6248    2.3500    0.0000 HO        1 <0>         0.0000
     63 H34         4.8054   -0.5375    0.0000 HC        1 <0>         0.0000
     64 H35         4.8054   -0.5375    0.0000 HC        1 <0>         0.0000
     65 H36         5.5199   -0.1250    0.0000 HC        1 <0>         0.0000
     66 H37         5.5199   -0.1250    0.0000 HC        1 <0>         0.0000
     67 H38         5.5199   -0.1250    0.0000 HC        1 <0>         0.0000
@<TRIPOS>BOND
     1    1    2 1
     2    1   28 1
     3    2    3 1
     4    3    4 1
     5    4    5 1
     6    5    6 1
     7    6    7 1
     8    7    8 1
     9    8    9 1
    10    8   16 1
    11    8   29 1
    12    9   10 1
    13   10   11 1
    14   10   13 1
    15   10   30 1
    16   11   12 1
    17   13   14 1
    18   13   15 1
    19   13   31 1
    20   15   16 1
    21   16   17 1
    22   16   32 1
    23   17   18 1
    24   18   19 1
    25   18   26 1
    26   18   33 1
    27   19   20 1
    28   20   21 1
    29   20   22 1
    30   20   34 1
    31   22   23 1
    32   22   24 1
    33   22   35 1
    34   24   25 1
    35   24   26 1
    36   24   36 1
    37   26   27 1
    38   26   37 1
    39   28   38 1
    40    1   39 1
    41    1   40 1
    42    2   41 1
    43    2   42 1
    44    3   43 1
    45    3   44 1
    46    4   45 1
    47    4   46 1
    48    5   47 1
    49    5   48 1
    50    6   49 1
    51    6   50 1
    52   11   51 1
    53   11   52 1
    54   12   53 1
    55   14   54 1
    56   15   55 1
    57   15   56 1
    58   21   57 1
    59   21   58 1
    60   21   59 1
    61   23   60 1
    62   25   61 1
    63   27   62 1
    64   28   63 1
    65   28   64 1
    66   38   65 1
    67   38   66 1
    68   38   67 1
@<TRIPOS>MOLECULE
DBA
   25    25     0     0     0
SMALL
NO_CHARGES

@<TRIPOS>ATOM
      1 C1          1.3991    1.4671    0.0000 C         1 <0>         0.0000
      2 C2          0.6846    1.0546    0.0000 CT        1 <0>         0.0000
      3 C3         -0.0299   -0.1829    0.0000 CA        1 <0>         0.0000
      4 C4         -0.0299   -1.0079    0.0000 CA        1 <0>         0.0000
      5 C5         -0.7443   -1.4204    0.0000 CA        1 <0>         0.0000
      6 C6         -1.4588   -1.0079    0.0000 CA        1 <0>         0.0000
      7 C7         -1.4588   -0.1829    0.0000 CA        1 <0>         0.0000
      8 C8         -0.7443    0.2296    0.0000 CA        1 <0>         0.0000
      9 C9          0.6846   -1.4204    0.0000 CT        1 <0>         0.0000
     10 C10        -0.7443    1.0546    0.0000 CT        1 <0>         0.0000
     11 O1          1.3991    2.2921    0.0000 O         1 <0>         0.0000
     12 O2          2.1135    1.0546    0.0000 OH        1 <0>         0.0000
     13 O3          0.6846    0.2296    0.0000 OS        1 <0>         0.0000
     14 H1          0.6846    1.0546    0.0000 H1        1 <0>         0.0000
     15 H2          0.6846    1.0546    0.0000 H1        1 <0>         0.0000
     16 H3         -0.7443   -1.4204    0.0000 HA        1 <0>         0.0000
     17 H4         -1.4588   -1.0079    0.0000 HA        1 <0>         0.0000
     18 H5         -1.4588   -0.1829    0.0000 HA        1 <0>         0.0000
     19 H6          0.6846   -1.4204    0.0000 HC        1 <0>         0.0000
     20 H7          0.6846   -1.4204    0.0000 HC        1 <0>         0.0000
     21 H8          0.6846   -1.4204    0.0000 HC        1 <0>         0.0000
     22 H9         -0.7443    1.0546    0.0000 HC        1 <0>         0.0000
     23 H10        -0.7443    1.0546    0.0000 HC        1 <0>         0.0000
     24 H11        -0.7443    1.0546    0.0000 HC        1 <0>         0.0000
     25 H12         2.1135    1.0546    0.0000 HO        1 <0>         0.0000
@<TRIPOS>BOND
     1    1    2 1
     2    1   11 2
     3    1   12 1
     4    2   13 1
     5    3    4 ar
     6    3    8 ar
     7    3   13 1
     8    4    5 ar
     9    4    9 1
    10    5    6 ar
    11    6    7 ar
    12    7    8 ar
    13    8   10 1
    14    2   14 1
    15    2   15 1
    16    5   16 1
    17    6   17 1
    18    7   18 1
    19    9   19 1
    20    9   20 1
    21    9   21 1
    22   10   22 1
    23   10   23 1
    24   10   24 1
    25   12   25 1
@<TRIPOS>MOLECULE
DBE
   26    27     0     0     0
SMALL
NO_CHARGES

@<TRIPOS>ATOM
      1 C1         18.7277   30.1741    0.0000 CA        1 <0>         0.0000
      2 C2         18.0132   29.7616    0.0000 CA        1 <0>         0.0000
      3 C3         18.7277   28.5241    0.0000 CA        1 <0>         0.0000
      4 C4         19.4422   28.9366    0.0000 CA        1 <0>         0.0000
      5 C5         19.4422   29.7616    0.0000 CA        1 <0>         0.0000
      6 C6         18.0132   28.9366    0.0000 CA        1 <0>         0.0000
      7 O1         16.5843   28.9366    0.0000 O         1 <0>         0.0000
      8 C7         17.2987   28.5241    0.0000 C         1 <0>         0.0000
      9 C8         17.2987   27.6991    0.0000 CA        1 <0>         0.0000
     10 C9         16.5843   27.2866    0.0000 CA        1 <0>         0.0000
     11 C10        16.5843   26.4616    0.0000 CA        1 <0>         0.0000
     12 C11        17.2987   26.0491    0.0000 CA        1 <0>         0.0000
     13 C12        18.0132   26.4616    0.0000 CA        1 <0>         0.0000
     14 C13        18.0132   27.2866    0.0000 CA        1 <0>         0.0000
     15 O2         20.1566   30.1741    0.0000 OH        1 <0>         0.0000
     16 O3         17.2987   25.2241    0.0000 OH        1 <0>         0.0000
     17 H1         18.7277   30.1741    0.0000 HA        1 <0>         0.0000
     18 H2         18.0132   29.7616    0.0000 HA        1 <0>         0.0000
     19 H3         18.7277   28.5241    0.0000 HA        1 <0>         0.0000
     20 H4         19.4422   28.9366    0.0000 HA        1 <0>         0.0000
     21 H5         16.5843   27.2866    0.0000 HA        1 <0>         0.0000
     22 H6         16.5843   26.4616    0.0000 HA        1 <0>         0.0000
     23 H7         18.0132   26.4616    0.0000 HA        1 <0>         0.0000
     24 H8         18.0132   27.2866    0.0000 HA        1 <0>         0.0000
     25 H9         20.1566   30.1741    0.0000 HO        1 <0>         0.0000
     26 H10        17.2987   25.2241    0.0000 HO        1 <0>         0.0000
@<TRIPOS>BOND
     1    1    5 ar
     2    1    2 ar
     3    2    6 ar
     4    4    5 ar
     5    3    4 ar
     6    5   15 1
     7    3    6 ar
     8    7    8 2
     9    6    8 1
    10    8    9 1
    11    9   14 ar
    12    9   10 ar
    13   10   11 ar
    14   11   12 ar
    15   12   16 1
    16   12   13 ar
    17   13   14 ar
    18    1   17 1
    19    2   18 1
    20    3   19 1
    21    4   20 1
    22   10   21 1
    23   11   22 1
    24   13   23 1
    25   14   24 1
    26   15   25 1
    27   16   26 1
@<TRIPOS>MOLECULE
DCQ
   53    53     0     0     0
SMALL
NO_CHARGES

@<TRIPOS>ATOM
      1 O1         -4.7924   -0.5757    0.0000 O         1 <0>         0.0000
      2 C1         -4.0779   -0.1632    0.0000 C         1 <0>         0.0000
      3 C2         -4.0779    0.6618    0.0000 CA        1 <0>         0.0000
      4 O2         -4.7924    1.0743    0.0000 OS        1 <0>         0.0000
      5 C3         -5.5068    0.6618    0.0000 CT        1 <0>         0.0000
      6 C4         -3.3634    1.0743    0.0000 CA        1 <0>         0.0000
      7 O3         -3.3634    1.8993    0.0000 OS        1 <0>         0.0000
      8 C5         -2.6490    2.3118    0.0000 CT        1 <0>         0.0000
      9 C6         -2.6490    0.6618    0.0000 C         1 <0>         0.0000
     10 O4         -1.9345    1.0743    0.0000 O         1 <0>         0.0000
     11 C7         -3.3634   -0.5757    0.0000 CA        1 <0>         0.0000
     12 C8         -3.3634   -1.4007    0.0000 CT        1 <0>         0.0000
     13 C9         -2.6490   -0.1632    0.0000 CA        1 <0>         0.0000
     14 C10        -1.9345   -0.5757    0.0000 CT        1 <0>         0.0000
     15 C11        -1.2200   -0.1632    0.0000 CT        1 <0>         0.0000
     16 C12        -0.5055   -0.5757    0.0000 CT        1 <0>         0.0000
     17 C13         0.2089   -0.1632    0.0000 CT        1 <0>         0.0000
     18 C14         0.9234   -0.5757    0.0000 CT        1 <0>         0.0000
     19 C15         1.6379   -0.1632    0.0000 CT        1 <0>         0.0000
     20 C16         2.3523   -0.5757    0.0000 CT        1 <0>         0.0000
     21 C17         3.0668   -0.1632    0.0000 CT        1 <0>         0.0000
     22 C18         3.7813   -0.5757    0.0000 CT        1 <0>         0.0000
     23 C19         4.4958   -0.1632    0.0000 CT        1 <0>         0.0000
     24 H1         -5.5068    0.6618    0.0000 H1        1 <0>         0.0000
     25 H2         -5.5068    0.6618    0.0000 H1        1 <0>         0.0000
     26 H3         -5.5068    0.6618    0.0000 H1        1 <0>         0.0000
     27 H4         -2.6490    2.3118    0.0000 H1        1 <0>         0.0000
     28 H5         -2.6490    2.3118    0.0000 H1        1 <0>         0.0000
     29 H6         -2.6490    2.3118    0.0000 H1        1 <0>         0.0000
     30 H7         -3.3634   -1.4007    0.0000 HC        1 <0>         0.0000
     31 H8         -3.3634   -1.4007    0.0000 HC        1 <0>         0.0000
     32 H9         -3.3634   -1.4007    0.0000 HC        1 <0>         0.0000
     33 H10        -1.9345   -0.5757    0.0000 HC        1 <0>         0.0000
     34 H11        -1.9345   -0.5757    0.0000 HC        1 <0>         0.0000
     35 H12        -1.2200   -0.1632    0.0000 HC        1 <0>         0.0000
     36 H13        -1.2200   -0.1632    0.0000 HC        1 <0>         0.0000
     37 H14        -0.5055   -0.5757    0.0000 HC        1 <0>         0.0000
     38 H15        -0.5055   -0.5757    0.0000 HC        1 <0>         0.0000
     39 H16         0.2089   -0.1632    0.0000 HC        1 <0>         0.0000
     40 H17         0.2089   -0.1632    0.0000 HC        1 <0>         0.0000
     41 H18         0.9234   -0.5757    0.0000 HC        1 <0>         0.0000
     42 H19         0.9234   -0.5757    0.0000 HC        1 <0>         0.0000
     43 H20         1.6379   -0.1632    0.0000 HC        1 <0>         0.0000
     44 H21         1.6379   -0.1632    0.0000 HC        1 <0>         0.0000
     45 H22         2.3523   -0.5757    0.0000 HC        1 <0>         0.0000
     46 H23         2.3523   -0.5757    0.0000 HC        1 <0>         0.0000
     47 H24         3.0668   -0.1632    0.0000 HC        1 <0>         0.0000
     48 H25         3.0668   -0.1632    0.0000 HC        1 <0>         0.0000
     49 H26         3.7813   -0.5757    0.0000 HC        1 <0>         0.0000
     50 H27         3.7813   -0.5757    0.0000 HC        1 <0>         0.0000
     51 H28         4.4958   -0.1632    0.0000 HC        1 <0>         0.0000
     52 H29         4.4958   -0.1632    0.0000 HC        1 <0>         0.0000
     53 H30         4.4958   -0.1632    0.0000 HC        1 <0>         0.0000
@<TRIPOS>BOND
     1    1    2 2
     2    2    3 1
     3    2   11 1
     4    3    4 1
     5    3    6 2
     6    4    5 1
     7    6    7 1
     8    6    9 1
     9    7    8 1
    10    9   10 2
    11    9   13 1
    12   11   12 1
    13   11   13 2
    14   13   14 1
    15   14   15 1
    16   15   16 1
    17   16   17 1
    18   17   18 1
    19   18   19 1
    20   19   20 1
    21   20   21 1
    22   21   22 1
    23   22   23 1
    24    5   24 1
    25    5   25 1
    26    5   26 1
    27    8   27 1
    28    8   28 1
    29    8   29 1
    30   12   30 1
    31   12   31 1
    32   12   32 1
    33   14   33 1
    34   14   34 1
    35   15   35 1
    36   15   36 1
    37   16   37 1
    38   16   38 1
    39   17   39 1
    40   17   40 1
    41   18   41 1
    42   18   42 1
    43   19   43 1
    44   19   44 1
    45   20   45 1
    46   20   46 1
    47   21   47 1
    48   21   48 1
    49   22   49 1
    50   22   50 1
    51   23   51 1
    52   23   52 1
    53   23   53 1
@<TRIPOS>MOLECULE
Sepiapterin.mol
   32    31     0     0     0
SMALL
NO_CHARGES

@<TRIPOS>ATOM
      1 C1          3.2151   -0.2063    0.0000 C         1 <0>         0.0000
      2 C2          2.5006    0.2062    0.0000 CT        1 <0>         0.0000
      3 C3          1.7862   -0.2062    0.0000 CT        1 <0>         0.0000
      4 C4          1.0717    0.2062    0.0000 CT        1 <0>         0.0000
      5 C5          0.3572   -0.2062    0.0000 CT        1 <0>         0.0000
      6 C6         -0.3572    0.2062    0.0000 CT        1 <0>         0.0000
      7 C7         -1.0717   -0.2062    0.0000 CT        1 <0>         0.0000
      8 C8         -1.7862    0.2062    0.0000 CT        1 <0>         0.0000
      9 C9         -2.5006   -0.2062    0.0000 CT        1 <0>         0.0000
     10 C10        -3.2151    0.2062    0.0000 C         1 <0>         0.0000
     11 O1          3.2151   -1.0313    0.0000 O         1 <0>         0.0000
     12 O2          3.9296    0.2062    0.0000 OH        1 <0>         0.0000
     13 O3         -3.2151    1.0313    0.0000 O         1 <0>         0.0000
     14 O4         -3.9296   -0.2062    0.0000 OH        1 <0>         0.0000
     15 H1          2.5006    0.2062    0.0000 HC        1 <0>         0.0000
     16 H2          2.5006    0.2062    0.0000 HC        1 <0>         0.0000
     17 H3          1.7862   -0.2062    0.0000 HC        1 <0>         0.0000
     18 H4          1.7862   -0.2062    0.0000 HC        1 <0>         0.0000
     19 H5          1.0717    0.2062    0.0000 HC        1 <0>         0.0000
     20 H6          1.0717    0.2062    0.0000 HC        1 <0>         0.0000
     21 H7          0.3572   -0.2062    0.0000 HC        1 <0>         0.0000
     22 H8          0.3572   -0.2062    0.0000 HC        1 <0>         0.0000
     23 H9         -0.3572    0.2062    0.0000 HC        1 <0>         0.0000
     24 H10        -0.3572    0.2062    0.0000 HC        1 <0>         0.0000
     25 H11        -1.0717   -0.2062    0.0000 HC        1 <0>         0.0000
     26 H12        -1.0717   -0.2062    0.0000 HC        1 <0>         0.0000
     27 H13        -1.7862    0.2062    0.0000 HC        1 <0>         0.0000
     28 H14        -1.7862    0.2062    0.0000 HC        1 <0>         0.0000
     29 H15        -2.5006   -0.2062    0.0000 HC        1 <0>         0.0000
     30 H16        -2.5006   -0.2062    0.0000 HC        1 <0>         0.0000
     31 H17         3.9296    0.2062    0.0000 HO        1 <0>         0.0000
     32 H18        -3.9296   -0.2062    0.0000 HO        1 <0>         0.0000
@<TRIPOS>BOND
     1    1    2 1
     2    2    3 1
     3    3    4 1
     4    4    5 1
     5    5    6 1
     6    6    7 1
     7    7    8 1
     8    8    9 1
     9    9   10 1
    10    1   11 2
    11    1   12 1
    12   10   13 2
    13   10   14 1
    14    2   15 1
    15    2   16 1
    16    3   17 1
    17    3   18 1
    18    4   19 1
    19    4   20 1
    20    5   21 1
    21    5   22 1
    22    6   23 1
    23    6   24 1
    24    7   25 1
    25    7   26 1
    26    8   27 1
    27    8   28 1
    28    9   29 1
    29    9   30 1
    30   12   31 1
    31   14   32 1
@<TRIPOS>MOLECULE
DFD
   35    34     0     0     0
SMALL
NO_CHARGES

@<TRIPOS>ATOM
      1 C1         -3.0189    0.2759    0.0000 CT        1 <0>         0.0000
      2 C2         -2.3045   -0.1366    0.0000 CT        1 <0>         0.0000
      3 C3         -1.5899    0.2759    0.0000 CT        1 <0>         0.0000
      4 C4         -0.8754   -0.1366    0.0000 CT        1 <0>         0.0000
      5 C5         -0.1609    0.2759    0.0000 CT        1 <0>         0.0000
      6 C6          0.5536   -0.1366    0.0000 CT        1 <0>         0.0000
      7 C7          1.2682    0.2759    0.0000 CT        1 <0>         0.0000
      8 C8          1.9827   -0.1366    0.0000 CT        1 <0>         0.0000
      9 C9          2.6972    0.2759    0.0000 CT        1 <0>         0.0000
     10 C10         3.4118   -0.1366    0.0000 CT        1 <0>         0.0000
     11 O1          4.1263    0.2759    0.0000 OS        1 <0>         0.0000
     12 C11         4.8408   -0.1366    0.0000 C         1 <0>         0.0000
     13 O2          5.5553    0.2759    0.0000 O         1 <0>         0.0000
     14 H1         -3.0189    0.2759    0.0000 HC        1 <0>         0.0000
     15 H2         -3.0189    0.2759    0.0000 HC        1 <0>         0.0000
     16 H3         -3.0189    0.2759    0.0000 HC        1 <0>         0.0000
     17 H4         -2.3045   -0.1366    0.0000 HC        1 <0>         0.0000
     18 H5         -2.3045   -0.1366    0.0000 HC        1 <0>         0.0000
     19 H6         -1.5899    0.2759    0.0000 HC        1 <0>         0.0000
     20 H7         -1.5899    0.2759    0.0000 HC        1 <0>         0.0000
     21 H8         -0.8754   -0.1366    0.0000 HC        1 <0>         0.0000
     22 H9         -0.8754   -0.1366    0.0000 HC        1 <0>         0.0000
     23 H10        -0.1609    0.2759    0.0000 HC        1 <0>         0.0000
     24 H11        -0.1609    0.2759    0.0000 HC        1 <0>         0.0000
     25 H12         0.5536   -0.1366    0.0000 HC        1 <0>         0.0000
     26 H13         0.5536   -0.1366    0.0000 HC        1 <0>         0.0000
     27 H14         1.2682    0.2759    0.0000 HC        1 <0>         0.0000
     28 H15         1.2682    0.2759    0.0000 HC        1 <0>         0.0000
     29 H16         1.9827   -0.1366    0.0000 HC        1 <0>         0.0000
     30 H17         1.9827   -0.1366    0.0000 HC        1 <0>         0.0000
     31 H18         2.6972    0.2759    0.0000 HC        1 <0>         0.0000
     32 H19         2.6972    0.2759    0.0000 HC        1 <0>         0.0000
     33 H20         3.4118   -0.1366    0.0000 H1        1 <0>         0.0000
     34 H21         3.4118   -0.1366    0.0000 H1        1 <0>         0.0000
     35 H22         4.8408   -0.1366    0.0000 H5        1 <0>         0.0000
@<TRIPOS>BOND
     1    1    2 1
     2    2    3 1
     3    3    4 1
     4    4    5 1
     5    5    6 1
     6    6    7 1
     7    7    8 1
     8    8    9 1
     9    9   10 1
    10   10   11 1
    11   11   12 1
    12   12   13 2
    13    1   14 1
    14    1   15 1
    15    1   16 1
    16    2   17 1
    17    2   18 1
    18    3   19 1
    19    3   20 1
    20    4   21 1
    21    4   22 1
    22    5   23 1
    23    5   24 1
    24    6   25 1
    25    6   26 1
    26    7   27 1
    27    7   28 1
    28    8   29 1
    29    8   30 1
    30    9   31 1
    31    9   32 1
    32   10   33 1
    33   10   34 1
    34   12   35 1
@<TRIPOS>MOLECULE
DIN
   20    21     0     0     0
SMALL
NO_CHARGES

@<TRIPOS>ATOM
      1 C1          0.0674    0.3997    0.0000 CB        1 <0>         0.0000
      2 C2         -0.6471    0.8122    0.0000 CA        1 <0>         0.0000
      3 C3         -1.3616    0.3997    0.0000 CA        1 <0>         0.0000
      4 C4         -1.3616   -0.4253    0.0000 CA        1 <0>         0.0000
      5 C5         -0.6471   -0.8378    0.0000 CA        1 <0>         0.0000
      6 C6          0.7818   -0.8378    0.0000 CA        1 <0>         0.0000
      7 C7          1.4963    0.3997    0.0000 CA        1 <0>         0.0000
      8 C8          0.7818    0.8122    0.0000 CA        1 <0>         0.0000
      9 O1          0.7818   -1.6628    0.0000 OH        1 <0>         0.0000
     10 O2         -2.0760    0.8122    0.0000 OH        1 <0>         0.0000
     11 C9          1.4963   -0.4253    0.0000 CA        1 <0>         0.0000
     12 C10         0.0674   -0.4253    0.0000 CB        1 <0>         0.0000
     13 H1         -0.6471    0.8122    0.0000 HA        1 <0>         0.0000
     14 H2         -1.3616   -0.4253    0.0000 HA        1 <0>         0.0000
     15 H3         -0.6471   -0.8378    0.0000 HA        1 <0>         0.0000
     16 H4          1.4963    0.3997    0.0000 HA        1 <0>         0.0000
     17 H5          0.7818    0.8122    0.0000 HA        1 <0>         0.0000
     18 H6          0.7818   -1.6628    0.0000 HO        1 <0>         0.0000
     19 H7         -2.0760    0.8122    0.0000 HO        1 <0>         0.0000
     20 H8          1.4963   -0.4253    0.0000 HA        1 <0>         0.0000
@<TRIPOS>BOND
     1    1    2 ar
     2    1    8 ar
     3    1   12 ar
     4    2    3 ar
     5    3    4 ar
     6    3   10 1
     7    4    5 ar
     8    5   12 ar
     9    6    9 1
    10    6   11 ar
    11    6   12 ar
    12    7    8 ar
    13    7   11 ar
    14    2   13 1
    15    4   14 1
    16    5   15 1
    17    7   16 1
    18    8   17 1
    19    9   18 1
    20   10   19 1
    21   11   20 1
@<TRIPOS>MOLECULE
DMW
   24    25     0     0     0
SMALL
NO_CHARGES

@<TRIPOS>ATOM
      1 C1         -0.8335   -0.4128    0.0000 CA        1 <0>         0.0000
      2 C2         -1.5480   -0.8253    0.0000 CT        1 <0>         0.0000
      3 C3         -0.1190   -0.8253    0.0000 C         1 <0>         0.0000
      4 O1         -0.1190   -1.6503    0.0000 O         1 <0>         0.0000
      5 C4          0.5954   -0.4128    0.0000 CB        1 <0>         0.0000
      6 C5          0.5954    0.4122    0.0000 CB        1 <0>         0.0000
      7 C6         -0.1190    0.8247    0.0000 C         1 <0>         0.0000
      8 O2         -0.1190    1.6497    0.0000 O         1 <0>         0.0000
      9 C7         -0.8335    0.4122    0.0000 CA        1 <0>         0.0000
     10 C8          1.3099   -0.8253    0.0000 CA        1 <0>         0.0000
     11 C9          2.0244   -0.4128    0.0000 CA        1 <0>         0.0000
     12 C10         2.0244    0.4122    0.0000 CA        1 <0>         0.0000
     13 C11         1.3099    0.8247    0.0000 CA        1 <0>         0.0000
     14 C12        -1.5480    0.8247    0.0000 CT        1 <0>         0.0000
     15 H1         -1.5480   -0.8253    0.0000 HC        1 <0>         0.0000
     16 H2         -1.5480   -0.8253    0.0000 HC        1 <0>         0.0000
     17 H3         -1.5480   -0.8253    0.0000 HC        1 <0>         0.0000
     18 H4          1.3099   -0.8253    0.0000 HA        1 <0>         0.0000
     19 H5          2.0244   -0.4128    0.0000 HA        1 <0>         0.0000
     20 H6          2.0244    0.4122    0.0000 HA        1 <0>         0.0000
     21 H7          1.3099    0.8247    0.0000 HA        1 <0>         0.0000
     22 H8         -1.5480    0.8247    0.0000 HC        1 <0>         0.0000
     23 H9         -1.5480    0.8247    0.0000 HC        1 <0>         0.0000
     24 H10        -1.5480    0.8247    0.0000 HC        1 <0>         0.0000
@<TRIPOS>BOND
     1    1    2 1
     2    1    3 1
     3    1    9 2
     4    3    4 2
     5    3    5 1
     6    5    6 ar
     7    5   10 ar
     8    6    7 1
     9    6   13 ar
    10    7    8 2
    11    7    9 1
    12    9   14 1
    13   10   11 ar
    14   11   12 ar
    15   12   13 ar
    16    2   15 1
    17    2   16 1
    18    2   17 1
    19   10   18 1
    20   11   19 1
    21   12   20 1
    22   13   21 1
    23   14   22 1
    24   14   23 1
    25   14   24 1
@<TRIPOS>MOLECULE
DPH
   24    24     0     0     0
SMALL
NO_CHARGES

@<TRIPOS>ATOM
      1 C1          0.0156    1.2404    0.0000 CT        1 <0>         0.0000
      2 C2          0.7301    0.8279    0.0000 CT        1 <0>         0.0000
      3 C3          0.7301    0.0029    0.0000 CT        1 <0>         0.0000
      4 C4          0.0156   -0.4096    0.0000 CA        1 <0>         0.0000
      5 C5          0.0156   -1.2346    0.0000 CA        1 <0>         0.0000
      6 C6         -0.6989    0.0029    0.0000 CA        1 <0>         0.0000
      7 C7         -0.6989   -1.6471    0.0000 CA        1 <0>         0.0000
      8 C8         -1.4133   -0.4096    0.0000 CA        1 <0>         0.0000
      9 C9         -1.4133   -1.2346    0.0000 CA        1 <0>         0.0000
     10 C10         1.4445    1.2404    0.0000 C         1 <0>         0.0000
     11 O1          1.4445    2.0654    0.0000 O         1 <0>         0.0000
     12 O2          2.1590    0.8279    0.0000 OH        1 <0>         0.0000
     13 H1          0.2244    0.5359    0.0000 HC        1 <0>         0.0000
     14 H2          0.0156    1.2404    0.0000 HC        1 <0>         0.0000
     15 H3          0.0156    1.2404    0.0000 HC        1 <0>         0.0000
     16 H4          0.0156    1.2404    0.0000 HC        1 <0>         0.0000
     17 H5          0.7301    0.0029    0.0000 HC        1 <0>         0.0000
     18 H6          0.7301    0.0029    0.0000 HC        1 <0>         0.0000
     19 H7          0.0156   -1.2346    0.0000 HA        1 <0>         0.0000
     20 H8         -0.6989    0.0029    0.0000 HA        1 <0>         0.0000
     21 H9         -0.6989   -1.6471    0.0000 HA        1 <0>         0.0000
     22 H10        -1.4133   -0.4096    0.0000 HA        1 <0>         0.0000
     23 H11        -1.4133   -1.2346    0.0000 HA        1 <0>         0.0000
     24 H12         2.1590    0.8279    0.0000 HO        1 <0>         0.0000
@<TRIPOS>BOND
     1    1    2 1
     2    2    3 1
     3    2   10 1
     4    2   13 1
     5    3    4 1
     6    4    5 ar
     7    4    6 ar
     8    5    7 ar
     9    6    8 ar
    10    7    9 ar
    11    8    9 ar
    12   10   11 2
    13   10   12 1
    14    1   14 1
    15    1   15 1
    16    1   16 1
    17    3   17 1
    18    3   18 1
    19    5   19 1
    20    6   20 1
    21    7   21 1
    22    8   22 1
    23    9   23 1
    24   12   24 1
@<TRIPOS>MOLECULE
DRQ
   54    57     0     0     0
SMALL
NO_CHARGES

@<TRIPOS>ATOM
      1 C1         -4.5265    1.3016    0.0000 CT        1 <0>         0.0000
      2 C2         -3.7144    1.4468    0.0000 CT        1 <0>         0.0000
      3 C3         -3.1826    0.8161    0.0000 CM        1 <0>         0.0000
      4 C4         -2.3704    0.9613    0.0000 CM        1 <0>         0.0000
      5 C5         -1.8386    0.3306    0.0000 CA        1 <0>         0.0000
      6 C6         -1.0265    0.4758    0.0000 CA        1 <0>         0.0000
      7 C7         -0.4947   -0.1549    0.0000 CA        1 <0>         0.0000
      8 C8          0.3174   -0.0096    0.0000 CT        1 <0>         0.0000
      9 C9          0.5977    0.7663    0.0000 CT        1 <0>         0.0000
     10 C10         1.4099    0.9115    0.0000 CT        1 <0>         0.0000
     11 C11         1.9417    0.2808    0.0000 CT        1 <0>         0.0000
     12 C12         2.3015    1.0232    0.0000 CT        1 <0>         0.0000
     13 C13         2.7662    0.2540    0.0000 CT        1 <0>         0.0000
     14 O1          3.2726    0.9053    0.0000 OH        1 <0>         0.0000
     15 C14         2.9955   -0.5385    0.0000 CT        1 <0>         0.0000
     16 C15         2.3127   -1.0015    0.0000 CT        1 <0>         0.0000
     17 C16         1.6614   -0.4951    0.0000 CT        1 <0>         0.0000
     18 C17         0.8493   -0.6404    0.0000 CT        1 <0>         0.0000
     19 C18         0.5690   -1.4163    0.0000 CT        1 <0>         0.0000
     20 C19        -0.2432   -1.5615    0.0000 CT        1 <0>         0.0000
     21 C20        -0.7750   -0.9308    0.0000 CA        1 <0>         0.0000
     22 C21        -1.5871   -1.0760    0.0000 CA        1 <0>         0.0000
     23 C22        -2.1189   -0.4453    0.0000 CA        1 <0>         0.0000
     24 O2         -2.9310   -0.5905    0.0000 OH        1 <0>         0.0000
     25 H1         -0.0590    0.4368    0.0000 HC        1 <0>         0.0000
     26 H2          2.5182    0.7826    0.0000 H1        1 <0>         0.0000
     27 H3          1.5215   -1.0621    0.0000 HC        1 <0>         0.0000
     28 H4          1.2257   -1.0868    0.0000 HC        1 <0>         0.0000
     29 H5         -4.5265    1.3016    0.0000 HC        1 <0>         0.0000
     30 H6         -4.5265    1.3016    0.0000 HC        1 <0>         0.0000
     31 H7         -4.5265    1.3016    0.0000 HC        1 <0>         0.0000
     32 H8         -3.7144    1.4468    0.0000 HC        1 <0>         0.0000
     33 H9         -3.7144    1.4468    0.0000 HC        1 <0>         0.0000
     34 H10        -3.1826    0.8161    0.0000 HA        1 <0>         0.0000
     35 H11        -2.3704    0.9613    0.0000 HA        1 <0>         0.0000
     36 H12        -1.0265    0.4758    0.0000 HA        1 <0>         0.0000
     37 H13         0.5977    0.7663    0.0000 HC        1 <0>         0.0000
     38 H14         0.5977    0.7663    0.0000 HC        1 <0>         0.0000
     39 H15         1.4099    0.9115    0.0000 HC        1 <0>         0.0000
     40 H16         1.4099    0.9115    0.0000 HC        1 <0>         0.0000
     41 H17         2.3015    1.0232    0.0000 HC        1 <0>         0.0000
     42 H18         2.3015    1.0232    0.0000 HC        1 <0>         0.0000
     43 H19         2.3015    1.0232    0.0000 HC        1 <0>         0.0000
     44 H20         3.2726    0.9053    0.0000 HO        1 <0>         0.0000
     45 H21         2.9955   -0.5385    0.0000 HC        1 <0>         0.0000
     46 H22         2.9955   -0.5385    0.0000 HC        1 <0>         0.0000
     47 H23         2.3127   -1.0015    0.0000 HC        1 <0>         0.0000
     48 H24         2.3127   -1.0015    0.0000 HC        1 <0>         0.0000
     49 H25         0.5690   -1.4163    0.0000 HC        1 <0>         0.0000
     50 H26         0.5690   -1.4163    0.0000 HC        1 <0>         0.0000
     51 H27        -0.2432   -1.5615    0.0000 HC        1 <0>         0.0000
     52 H28        -0.2432   -1.5615    0.0000 HC        1 <0>         0.0000
     53 H29        -1.5871   -1.0760    0.0000 HA        1 <0>         0.0000
     54 H30        -2.9310   -0.5905    0.0000 HO        1 <0>         0.0000
@<TRIPOS>BOND
     1    1    2 1
     2    2    3 1
     3    3    4 2
     4    4    5 1
     5    5    6 ar
     6    5   23 ar
     7    6    7 ar
     8    7    8 1
     9    7   21 ar
    10    8    9 1
    11    8   18 1
    12    8   25 1
    13    9   10 1
    14   10   11 1
    15   11   12 1
    16   11   13 1
    17   11   17 1
    18   13   14 1
    19   13   15 1
    20   13   26 1
    21   15   16 1
    22   16   17 1
    23   17   18 1
    24   17   27 1
    25   18   19 1
    26   18   28 1
    27   19   20 1
    28   20   21 1
    29   21   22 ar
    30   22   23 ar
    31   23   24 1
    32    1   29 1
    33    1   30 1
    34    1   31 1
    35    2   32 1
    36    2   33 1
    37    3   34 1
    38    4   35 1
    39    6   36 1
    40    9   37 1
    41    9   38 1
    42   10   39 1
    43   10   40 1
    44   12   41 1
    45   12   42 1
    46   12   43 1
    47   14   44 1
    48   15   45 1
    49   15   46 1
    50   16   47 1
    51   16   48 1
    52   19   49 1
    53   19   50 1
    54   20   51 1
    55   20   52 1
    56   22   53 1
    57   24   54 1
@<TRIPOS>MOLECULE
E3O
   45    48     0     0     0
SMALL
NO_CHARGES

@<TRIPOS>ATOM
      1 C1         -2.6519    1.0590    0.0000 CT        1 <0>         0.0000
      2 C2         -2.3716    1.8349    0.0000 CT        1 <0>         0.0000
      3 C3         -1.5595    1.9801    0.0000 CT        1 <0>         0.0000
      4 C4         -1.0277    1.3494    0.0000 CT        1 <0>         0.0000
      5 C5         -0.6678    2.0918    0.0000 CT        1 <0>         0.0000
      6 C6         -0.2031    1.3226    0.0000 CT        1 <0>         0.0000
      7 O1          0.3032    1.9740    0.0000 OH        1 <0>         0.0000
      8 C7          0.0262    0.5301    0.0000 CT        1 <0>         0.0000
      9 O2          0.8021    0.2498    0.0000 OH        1 <0>         0.0000
     10 C8         -0.6567    0.0672    0.0000 CT        1 <0>         0.0000
     11 C9         -1.3080    0.5735    0.0000 CT        1 <0>         0.0000
     12 C10        -2.1201    0.4283    0.0000 CT        1 <0>         0.0000
     13 C11        -2.4004   -0.3476    0.0000 CT        1 <0>         0.0000
     14 C12        -3.2125   -0.4928    0.0000 CT        1 <0>         0.0000
     15 C13        -3.7444    0.1379    0.0000 CA        1 <0>         0.0000
     16 C14        -4.5565   -0.0074    0.0000 CA        1 <0>         0.0000
     17 C15        -5.0883    0.6234    0.0000 CA        1 <0>         0.0000
     18 O3         -5.9004    0.4781    0.0000 OH        1 <0>         0.0000
     19 C16        -4.8080    1.3993    0.0000 CA        1 <0>         0.0000
     20 C17        -3.9959    1.5445    0.0000 CA        1 <0>         0.0000
     21 C18        -3.4641    0.9138    0.0000 CA        1 <0>         0.0000
     22 H1         -3.0284    1.5054    0.0000 HC        1 <0>         0.0000
     23 H2         -1.7437   -0.0181    0.0000 HC        1 <0>         0.0000
     24 H3         -0.4512    1.8512    0.0000 H1        1 <0>         0.0000
     25 H4         -1.4479    0.0066    0.0000 HC        1 <0>         0.0000
     26 H5          0.4523    0.9294    0.0000 H1        1 <0>         0.0000
     27 H6         -2.3716    1.8349    0.0000 HC        1 <0>         0.0000
     28 H7         -2.3716    1.8349    0.0000 HC        1 <0>         0.0000
     29 H8         -1.5595    1.9801    0.0000 HC        1 <0>         0.0000
     30 H9         -1.5595    1.9801    0.0000 HC        1 <0>         0.0000
     31 H10        -0.6678    2.0918    0.0000 HC        1 <0>         0.0000
     32 H11        -0.6678    2.0918    0.0000 HC        1 <0>         0.0000
     33 H12        -0.6678    2.0918    0.0000 HC        1 <0>         0.0000
     34 H13         0.3032    1.9740    0.0000 HO        1 <0>         0.0000
     35 H14         0.8021    0.2498    0.0000 HO        1 <0>         0.0000
     36 H15        -0.6567    0.0672    0.0000 HC        1 <0>         0.0000
     37 H16        -0.6567    0.0672    0.0000 HC        1 <0>         0.0000
     38 H17        -2.4004   -0.3476    0.0000 HC        1 <0>         0.0000
     39 H18        -2.4004   -0.3476    0.0000 HC        1 <0>         0.0000
     40 H19        -3.2125   -0.4928    0.0000 HC        1 <0>         0.0000
     41 H20        -3.2125   -0.4928    0.0000 HC        1 <0>         0.0000
     42 H21        -4.5565   -0.0074    0.0000 HA        1 <0>         0.0000
     43 H22        -5.9004    0.4781    0.0000 HO        1 <0>         0.0000
     44 H23        -4.8080    1.3993    0.0000 HA        1 <0>         0.0000
     45 H24        -3.9959    1.5445    0.0000 HA        1 <0>         0.0000
@<TRIPOS>BOND
     1    1    2 1
     2    1   12 1
     3    1   21 1
     4    1   22 1
     5    2    3 1
     6    3    4 1
     7    4    5 1
     8    4    6 1
     9    4   11 1
    10    6    7 1
    11    6    8 1
    12    6   24 1
    13    8    9 1
    14    8   10 1
    15    8   26 1
    16   10   11 1
    17   11   12 1
    18   11   25 1
    19   12   13 1
    20   12   23 1
    21   13   14 1
    22   14   15 1
    23   15   16 ar
    24   15   21 ar
    25   16   17 ar
    26   17   18 1
    27   17   19 ar
    28   19   20 ar
    29   20   21 ar
    30    2   27 1
    31    2   28 1
    32    3   29 1
    33    3   30 1
    34    5   31 1
    35    5   32 1
    36    5   33 1
    37    7   34 1
    38    9   35 1
    39   10   36 1
    40   10   37 1
    41   13   38 1
    42   13   39 1
    43   14   40 1
    44   14   41 1
    45   16   42 1
    46   18   43 1
    47   19   44 1
    48   20   45 1
@<TRIPOS>MOLECULE
E4H
   49    49     0     0     0
SMALL
NO_CHARGES

@<TRIPOS>ATOM
      1 C1          0.3291   -0.0919    0.0000 CT        1 <0>         0.0000
      2 C2          0.7416    0.6226    0.0000 CT        1 <0>         0.0000
      3 C3          1.5666    0.6226    0.0000 CT        1 <0>         0.0000
      4 C4          1.9791   -0.0919    0.0000 CT        1 <0>         0.0000
      5 C5          2.8041   -0.0919    0.0000 CT        1 <0>         0.0000
      6 C6          1.5666   -0.8063    0.0000 C         1 <0>         0.0000
      7 O1          1.9791   -1.5208    0.0000 O         1 <0>         0.0000
      8 C7          0.7416   -0.8063    0.0000 CM        1 <0>         0.0000
      9 C8          0.3291   -1.5208    0.0000 CM        1 <0>         0.0000
     10 C9         -0.4959   -1.5208    0.0000 CT        1 <0>         0.0000
     11 C10        -0.9084   -2.2353    0.0000 CT        1 <0>         0.0000
     12 C11        -0.9084   -0.8063    0.0000 CT        1 <0>         0.0000
     13 C12        -1.7334   -0.8063    0.0000 CT        1 <0>         0.0000
     14 C13        -2.1459   -0.0919    0.0000 CT        1 <0>         0.0000
     15 O2         -0.4959   -0.0919    0.0000 OS        1 <0>         0.0000
     16 C14        -0.9084    0.6226    0.0000 C         1 <0>         0.0000
     17 O3         -1.7334    0.6226    0.0000 O         1 <0>         0.0000
     18 C15        -0.4959    1.3371    0.0000 CT        1 <0>         0.0000
     19 C16        -0.9084    2.0515    0.0000 CT        1 <0>         0.0000
     20 C17         0.3291    1.3371    0.0000 CT        1 <0>         0.0000
     21 O4          0.7416    2.0515    0.0000 OH        1 <0>         0.0000
     22 H1          1.0336    0.1169    0.0000 HC        1 <0>         0.0000
     23 H2          2.2711    0.4138    0.0000 HC        1 <0>         0.0000
     24 H3         -0.2039   -2.0265    0.0000 HC        1 <0>         0.0000
     25 H4         -1.2004   -1.3120    0.0000 H1        1 <0>         0.0000
     26 H5         -1.0798    1.3371    0.0000 HC        1 <0>         0.0000
     27 H6          0.9130    1.3371    0.0000 H1        1 <0>         0.0000
     28 H7          0.3291   -0.0919    0.0000 HC        1 <0>         0.0000
     29 H8          0.3291   -0.0919    0.0000 HC        1 <0>         0.0000
     30 H9          0.3291   -0.0919    0.0000 HC        1 <0>         0.0000
     31 H10         1.5666    0.6226    0.0000 HC        1 <0>         0.0000
     32 H11         1.5666    0.6226    0.0000 HC        1 <0>         0.0000
     33 H12         2.8041   -0.0919    0.0000 HC        1 <0>         0.0000
     34 H13         2.8041   -0.0919    0.0000 HC        1 <0>         0.0000
     35 H14         2.8041   -0.0919    0.0000 HC        1 <0>         0.0000
     36 H15         0.7416   -0.8063    0.0000 HA        1 <0>         0.0000
     37 H16         0.3291   -1.5208    0.0000 HA        1 <0>         0.0000
     38 H17        -0.9084   -2.2353    0.0000 HC        1 <0>         0.0000
     39 H18        -0.9084   -2.2353    0.0000 HC        1 <0>         0.0000
     40 H19        -0.9084   -2.2353    0.0000 HC        1 <0>         0.0000
     41 H20        -1.7334   -0.8063    0.0000 HC        1 <0>         0.0000
     42 H21        -1.7334   -0.8063    0.0000 HC        1 <0>         0.0000
     43 H22        -2.1459   -0.0919    0.0000 HC        1 <0>         0.0000
     44 H23        -2.1459   -0.0919    0.0000 HC        1 <0>         0.0000
     45 H24        -2.1459   -0.0919    0.0000 HC        1 <0>         0.0000
     46 H25        -0.9084    2.0515    0.0000 HC        1 <0>         0.0000
     47 H26        -0.9084    2.0515    0.0000 HC        1 <0>         0.0000
     48 H27        -0.9084    2.0515    0.0000 HC        1 <0>         0.0000
     49 H28         0.7416    2.0515    0.0000 HO        1 <0>         0.0000
@<TRIPOS>BOND
     1    1    2 1
     2    2    3 1
     3    2   20 1
     4    2   22 1
     5    3    4 1
     6    4    5 1
     7    4    6 1
     8    4   23 1
     9    6    7 2
    10    6    8 1
    11    8    9 2
    12    9   10 1
    13   10   11 1
    14   10   12 1
    15   10   24 1
    16   12   13 1
    17   12   15 1
    18   12   25 1
    19   13   14 1
    20   15   16 1
    21   16   17 2
    22   16   18 1
    23   18   19 1
    24   18   20 1
    25   18   26 1
    26   20   21 1
    27   20   27 1
    28    1   28 1
    29    1   29 1
    30    1   30 1
    31    3   31 1
    32    3   32 1
    33    5   33 1
    34    5   34 1
    35    5   35 1
    36    8   36 1
    37    9   37 1
    38   11   38 1
    39   11   39 1
    40   11   40 1
    41   13   41 1
    42   13   42 1
    43   14   43 1
    44   14   44 1
    45   14   45 1
    46   19   46 1
    47   19   47 1
    48   19   48 1
    49   21   49 1
@<TRIPOS>MOLECULE
2-Hydroxyestradiol.mol
   45    48     0     0     0
SMALL
NO_CHARGES

@<TRIPOS>ATOM
      1 C1         -2.0637   -1.3448    0.0000 CA        1 <0>         0.0000
      2 O1         -2.7782   -1.7573    0.0000 OH        1 <0>         0.0000
      3 C2         -2.0637   -0.5198    0.0000 CA        1 <0>         0.0000
      4 C3         -1.3492   -0.1073    0.0000 CA        1 <0>         0.0000
      5 C4         -1.3492   -1.7573    0.0000 CA        1 <0>         0.0000
      6 C5         -0.6348   -1.3448    0.0000 CA        1 <0>         0.0000
      7 C6          0.0797   -1.7573    0.0000 CT        1 <0>         0.0000
      8 C7          0.7942   -1.3448    0.0000 CT        1 <0>         0.0000
      9 C8          0.7942   -0.5198    0.0000 CT        1 <0>         0.0000
     10 C9          1.5086   -0.1073    0.0000 CT        1 <0>         0.0000
     11 C10         2.2933   -0.3622    0.0000 CT        1 <0>         0.0000
     12 C11         2.7782    0.3052    0.0000 CT        1 <0>         0.0000
     13 C12         2.2933    0.9727    0.0000 CT        1 <0>         0.0000
     14 O2          2.5482    1.7573    0.0000 OH        1 <0>         0.0000
     15 C13         1.5086    0.7177    0.0000 CT        1 <0>         0.0000
     16 C14         1.5086    1.5427    0.0000 CT        1 <0>         0.0000
     17 C15         0.7942    1.1302    0.0000 CT        1 <0>         0.0000
     18 C16         0.0797    0.7177    0.0000 CT        1 <0>         0.0000
     19 C17         0.0797   -0.1073    0.0000 CT        1 <0>         0.0000
     20 C18        -0.6348   -0.5198    0.0000 CA        1 <0>         0.0000
     21 O3         -2.7782   -0.1073    0.0000 OH        1 <0>         0.0000
     22 H1          0.0797   -0.9323    0.0000 HC        1 <0>         0.0000
     23 H2          0.7942    0.3052    0.0000 HC        1 <0>         0.0000
     24 H3          1.5086   -0.9323    0.0000 HC        1 <0>         0.0000
     25 H4         -2.7782   -1.7573    0.0000 HO        1 <0>         0.0000
     26 H5         -1.3492   -0.1073    0.0000 HA        1 <0>         0.0000
     27 H6         -1.3492   -1.7573    0.0000 HA        1 <0>         0.0000
     28 H7          0.0797   -1.7573    0.0000 HC        1 <0>         0.0000
     29 H8          0.0797   -1.7573    0.0000 HC        1 <0>         0.0000
     30 H9          0.7942   -1.3448    0.0000 HC        1 <0>         0.0000
     31 H10         0.7942   -1.3448    0.0000 HC        1 <0>         0.0000
     32 H11         2.2933   -0.3622    0.0000 HC        1 <0>         0.0000
     33 H12         2.2933   -0.3622    0.0000 HC        1 <0>         0.0000
     34 H13         2.7782    0.3052    0.0000 HC        1 <0>         0.0000
     35 H14         2.7782    0.3052    0.0000 HC        1 <0>         0.0000
     36 H15         2.2933    0.9727    0.0000 H1        1 <0>         0.0000
     37 H16         2.5482    1.7573    0.0000 HO        1 <0>         0.0000
     38 H17         1.5086    1.5427    0.0000 HC        1 <0>         0.0000
     39 H18         1.5086    1.5427    0.0000 HC        1 <0>         0.0000
     40 H19         1.5086    1.5427    0.0000 HC        1 <0>         0.0000
     41 H20         0.7942    1.1302    0.0000 HC        1 <0>         0.0000
     42 H21         0.7942    1.1302    0.0000 HC        1 <0>         0.0000
     43 H22         0.0797    0.7177    0.0000 HC        1 <0>         0.0000
     44 H23         0.0797    0.7177    0.0000 HC        1 <0>         0.0000
     45 H24        -2.7782   -0.1073    0.0000 HO        1 <0>         0.0000
@<TRIPOS>BOND
     1    1    2 1
     2    1    3 ar
     3    3    4 ar
     4    1    5 ar
     5    5    6 ar
     6    6    7 1
     7    7    8 1
     8    8    9 1
     9    9   10 1
    10   10   11 1
    11   11   12 1
    12   12   13 1
    13   13   14 1
    14   13   15 1
    15   10   15 1
    16   15   16 1
    17   15   17 1
    18   17   18 1
    19   18   19 1
    20    9   19 1
    21   19   20 1
    22    4   20 ar
    23    6   20 ar
    24    3   21 1
    25   19   22 1
    26    9   23 1
    27   10   24 1
    28    2   25 1
    29    4   26 1
    30    5   27 1
    31    7   28 1
    32    7   29 1
    33    8   30 1
    34    8   31 1
    35   11   32 1
    36   11   33 1
    37   12   34 1
    38   12   35 1
    39   13   36 1
    40   14   37 1
    41   16   38 1
    42   16   39 1
    43   16   40 1
    44   17   41 1
    45   17   42 1
    46   18   43 1
    47   18   44 1
    48   21   45 1
@<TRIPOS>MOLECULE
EED
   51    54     0     0     0
SMALL
NO_CHARGES

@<TRIPOS>ATOM
      1 C1          0.4026    0.1232    0.0000 CT        1 <0>         0.0000
      2 C2          1.2147    0.2685    0.0000 CA        1 <0>         0.0000
      3 C3          1.7465   -0.3623    0.0000 CA        1 <0>         0.0000
      4 C4          2.5586   -0.2170    0.0000 CA        1 <0>         0.0000
      5 C5          2.8389    0.5589    0.0000 CA        1 <0>         0.0000
      6 O1          3.6510    0.7041    0.0000 OH        1 <0>         0.0000
      7 C6          2.3071    1.1896    0.0000 CA        1 <0>         0.0000
      8 C7          1.4950    1.0444    0.0000 CA        1 <0>         0.0000
      9 C8          0.9632    1.6751    0.0000 CT        1 <0>         0.0000
     10 C9          0.1510    1.5299    0.0000 CT        1 <0>         0.0000
     11 C10        -0.1293    0.7539    0.0000 CT        1 <0>         0.0000
     12 C11        -0.9414    0.6087    0.0000 CT        1 <0>         0.0000
     13 C12        -1.5927    1.1151    0.0000 CT        1 <0>         0.0000
     14 C13        -2.2756    0.6521    0.0000 CT        1 <0>         0.0000
     15 C14        -2.0462   -0.1404    0.0000 CT        1 <0>         0.0000
     16 O2         -2.5526   -0.7917    0.0000 OH        1 <0>         0.0000
     17 C15        -1.2217   -0.1672    0.0000 CT        1 <0>         0.0000
     18 C16        -1.5816   -0.9096    0.0000 CT        1 <0>         0.0000
     19 C17        -0.6899   -0.7979    0.0000 CT        1 <0>         0.0000
     20 C18         0.1223   -0.6527    0.0000 CT        1 <0>         0.0000
     21 C19         0.6541   -1.2834    0.0000 CT        1 <0>         0.0000
     22 O3          1.4662   -1.1382    0.0000 OS        1 <0>         0.0000
     23 C20         1.9980   -1.7689    0.0000 CT        1 <0>         0.0000
     24 H1          0.9090   -0.1675    0.0000 HC        1 <0>         0.0000
     25 H2         -0.5057    1.2004    0.0000 HC        1 <0>         0.0000
     26 H3         -0.8015    1.1757    0.0000 HC        1 <0>         0.0000
     27 H4         -2.6197   -0.0303    0.0000 H1        1 <0>         0.0000
     28 H5          0.6976   -0.7527    0.0000 HC        1 <0>         0.0000
     29 H6          1.7465   -0.3623    0.0000 HA        1 <0>         0.0000
     30 H7          2.5586   -0.2170    0.0000 HA        1 <0>         0.0000
     31 H8          3.6510    0.7041    0.0000 HO        1 <0>         0.0000
     32 H9          2.3071    1.1896    0.0000 HA        1 <0>         0.0000
     33 H10         0.9632    1.6751    0.0000 HC        1 <0>         0.0000
     34 H11         0.9632    1.6751    0.0000 HC        1 <0>         0.0000
     35 H12         0.1510    1.5299    0.0000 HC        1 <0>         0.0000
     36 H13         0.1510    1.5299    0.0000 HC        1 <0>         0.0000
     37 H14        -1.5927    1.1151    0.0000 HC        1 <0>         0.0000
     38 H15        -1.5927    1.1151    0.0000 HC        1 <0>         0.0000
     39 H16        -2.2756    0.6521    0.0000 HC        1 <0>         0.0000
     40 H17        -2.2756    0.6521    0.0000 HC        1 <0>         0.0000
     41 H18        -2.5526   -0.7917    0.0000 HO        1 <0>         0.0000
     42 H19        -1.5816   -0.9096    0.0000 HC        1 <0>         0.0000
     43 H20        -1.5816   -0.9096    0.0000 HC        1 <0>         0.0000
     44 H21        -1.5816   -0.9096    0.0000 HC        1 <0>         0.0000
     45 H22        -0.6899   -0.7979    0.0000 HC        1 <0>         0.0000
     46 H23        -0.6899   -0.7979    0.0000 HC        1 <0>         0.0000
     47 H24         0.6541   -1.2834    0.0000 H1        1 <0>         0.0000
     48 H25         0.6541   -1.2834    0.0000 H1        1 <0>         0.0000
     49 H26         1.9980   -1.7689    0.0000 H1        1 <0>         0.0000
     50 H27         1.9980   -1.7689    0.0000 H1        1 <0>         0.0000
     51 H28         1.9980   -1.7689    0.0000 H1        1 <0>         0.0000
@<TRIPOS>BOND
     1    1   20 1
     2    1   11 1
     3    1    2 1
     4    1   24 1
     5    2    3 ar
     6    2    8 ar
     7    3    4 ar
     8    4    5 ar
     9    5    7 ar
    10    5    6 1
    11    7    8 ar
    12    8    9 1
    13    9   10 1
    14   10   11 1
    15   11   12 1
    16   11   25 1
    17   12   17 1
    18   12   13 1
    19   12   26 1
    20   13   14 1
    21   14   15 1
    22   15   16 1
    23   15   17 1
    24   15   27 1
    25   17   19 1
    26   17   18 1
    27   19   20 1
    28   20   21 1
    29   20   28 1
    30   21   22 1
    31   22   23 1
    32    3   29 1
    33    4   30 1
    34    6   31 1
    35    7   32 1
    36    9   33 1
    37    9   34 1
    38   10   35 1
    39   10   36 1
    40   13   37 1
    41   13   38 1
    42   14   39 1
    43   14   40 1
    44   16   41 1
    45   18   42 1
    46   18   43 1
    47   18   44 1
    48   19   45 1
    49   19   46 1
    50   21   47 1
    51   21   48 1
    52   23   49 1
    53   23   50 1
    54   23   51 1
@<TRIPOS>MOLECULE
ELI
   39    40     0     0     0
SMALL
NO_CHARGES

@<TRIPOS>ATOM
      1 C1         -2.1169   -2.1212    0.0000 CA        1 <0>         0.0000
      2 C2         -1.4024   -1.7087    0.0000 CA        1 <0>         0.0000
      3 C3         -1.4024   -0.8837    0.0000 CB        1 <0>         0.0000
      4 C4         -2.1169   -0.4712    0.0000 CB        1 <0>         0.0000
      5 C5         -2.8314   -0.8837    0.0000 CA        1 <0>         0.0000
      6 C6         -2.8314   -1.7087    0.0000 CA        1 <0>         0.0000
      7 O1          0.0265   -0.8837    0.0000 O         1 <0>         0.0000
      8 C7         -0.6880   -0.4712    0.0000 C         1 <0>         0.0000
      9 C8         -2.1169    0.3538    0.0000 C         1 <0>         0.0000
     10 C9         -1.4024    0.7663    0.0000 CA        1 <0>         0.0000
     11 C10        -0.6880    0.3538    0.0000 CA        1 <0>         0.0000
     12 O2         -2.8314    0.7663    0.0000 O         1 <0>         0.0000
     13 C11        -1.4024    1.5913    0.0000 CT        1 <0>         0.0000
     14 C12         0.0265    0.7663    0.0000 CT        1 <0>         0.0000
     15 C13         0.7410    0.3538    0.0000 CT        1 <0>         0.0000
     16 C14         1.4554    0.7663    0.0000 CT        1 <0>         0.0000
     17 C15         2.1699    0.3538    0.0000 CT        1 <0>         0.0000
     18 C16         2.8844    0.7663    0.0000 CT        1 <0>         0.0000
     19 C17         3.5989    0.3538    0.0000 C         1 <0>         0.0000
     20 O3          4.3133    0.7663    0.0000 O         1 <0>         0.0000
     21 O4          3.5989   -0.4712    0.0000 OH        1 <0>         0.0000
     22 H1         -2.1169   -2.1212    0.0000 HA        1 <0>         0.0000
     23 H2         -1.4024   -1.7087    0.0000 HA        1 <0>         0.0000
     24 H3         -2.8314   -0.8837    0.0000 HA        1 <0>         0.0000
     25 H4         -2.8314   -1.7087    0.0000 HA        1 <0>         0.0000
     26 H5         -1.4024    1.5913    0.0000 HC        1 <0>         0.0000
     27 H6         -1.4024    1.5913    0.0000 HC        1 <0>         0.0000
     28 H7         -1.4024    1.5913    0.0000 HC        1 <0>         0.0000
     29 H8          0.0265    0.7663    0.0000 HC        1 <0>         0.0000
     30 H9          0.0265    0.7663    0.0000 HC        1 <0>         0.0000
     31 H10         0.7410    0.3538    0.0000 HC        1 <0>         0.0000
     32 H11         0.7410    0.3538    0.0000 HC        1 <0>         0.0000
     33 H12         1.4554    0.7663    0.0000 HC        1 <0>         0.0000
     34 H13         1.4554    0.7663    0.0000 HC        1 <0>         0.0000
     35 H14         2.1699    0.3538    0.0000 HC        1 <0>         0.0000
     36 H15         2.1699    0.3538    0.0000 HC        1 <0>         0.0000
     37 H16         2.8844    0.7663    0.0000 HC        1 <0>         0.0000
     38 H17         2.8844    0.7663    0.0000 HC        1 <0>         0.0000
     39 H18         3.5989   -0.4712    0.0000 HO        1 <0>         0.0000
@<TRIPOS>BOND
     1    1    2 ar
     2    1    6 ar
     3    2    3 ar
     4    3    4 ar
     5    3    8 1
     6    4    5 ar
     7    4    9 1
     8    5    6 ar
     9    7    8 2
    10    8   11 1
    11    9   10 1
    12    9   12 2
    13   10   11 2
    14   10   13 1
    15   11   14 1
    16   14   15 1
    17   15   16 1
    18   16   17 1
    19   17   18 1
    20   18   19 1
    21   19   20 2
    22   19   21 1
    23    1   22 1
    24    2   23 1
    25    5   24 1
    26    6   25 1
    27   13   26 1
    28   13   27 1
    29   13   28 1
    30   14   29 1
    31   14   30 1
    32   15   31 1
    33   15   32 1
    34   16   33 1
    35   16   34 1
    36   17   35 1
    37   17   36 1
    38   18   37 1
    39   18   38 1
    40   21   39 1
@<TRIPOS>MOLECULE
*****
   30    32     0     0     0
SMALL
NO_CHARGES

@<TRIPOS>ATOM
      1 C1          5.7158    0.8250    0.0000 CT        1 <0>         0.0000
      2 C2          4.2868    0.8250    0.0000 CA        1 <0>         0.0000
      3 C3          5.0013    2.0625    0.0000 CA        1 <0>         0.0000
      4 C4          1.4289    0.8250    0.0000 CA        1 <0>         0.0000
      5 C5          0.7145    2.0625    0.0000 CA        1 <0>         0.0000
      6 C6          5.0013    1.2375    0.0000 CA        1 <0>         0.0000
      7 C7          0.7145    1.2375    0.0000 CA        1 <0>         0.0000
      8 C8          3.5724    1.2375    0.0000 CB        1 <0>         0.0000
      9 C9          2.1434    1.2375    0.0000 CB        1 <0>         0.0000
     10 C10         4.2868    2.4750    0.0000 CA        1 <0>         0.0000
     11 C11         1.4289    2.4750    0.0000 CA        1 <0>         0.0000
     12 C12         3.5724    2.0625    0.0000 CB        1 <0>         0.0000
     13 C13         2.1434    2.0625    0.0000 CB        1 <0>         0.0000
     14 C14         2.8579    0.8250    0.0000 C         1 <0>         0.0000
     15 C15         2.8579    2.4750    0.0000 C         1 <0>         0.0000
     16 O1         -0.0000    0.8250    0.0000 OH        1 <0>         0.0000
     17 O2          4.2868    3.3000    0.0000 OH        1 <0>         0.0000
     18 O3          1.4289    3.3000    0.0000 OH        1 <0>         0.0000
     19 O4          2.8579    0.0000    0.0000 O         1 <0>         0.0000
     20 O5          2.8579    3.3000    0.0000 O         1 <0>         0.0000
     21 H1          5.7158    0.8250    0.0000 HC        1 <0>         0.0000
     22 H2          5.7158    0.8250    0.0000 HC        1 <0>         0.0000
     23 H3          5.7158    0.8250    0.0000 HC        1 <0>         0.0000
     24 H4          4.2868    0.8250    0.0000 HA        1 <0>         0.0000
     25 H5          5.0013    2.0625    0.0000 HA        1 <0>         0.0000
     26 H6          1.4289    0.8250    0.0000 HA        1 <0>         0.0000
     27 H7          0.7145    2.0625    0.0000 HA        1 <0>         0.0000
     28 H8         -0.0000    0.8250    0.0000 HO        1 <0>         0.0000
     29 H9          4.2868    3.3000    0.0000 HO        1 <0>         0.0000
     30 H10         1.4289    3.3000    0.0000 HO        1 <0>         0.0000
@<TRIPOS>BOND
     1    1    6 1
     2    2    6 ar
     3    3    6 ar
     4    4    7 ar
     5    5    7 ar
     6    2    8 ar
     7    4    9 ar
     8    3   10 ar
     9    5   11 ar
    10    8   12 ar
    11   10   12 ar
    12    9   13 ar
    13   11   13 ar
    14    8   14 1
    15    9   14 1
    16   12   15 1
    17   13   15 1
    18    7   16 1
    19   10   17 1
    20   11   18 1
    21   14   19 2
    22   15   20 2
    23    1   21 1
    24    1   22 1
    25    1   23 1
    26    2   24 1
    27    3   25 1
    28    4   26 1
    29    5   27 1
    30   16   28 1
    31   17   29 1
    32   18   30 1
@<TRIPOS>MOLECULE
ENE
   60    64     0     0     0
SMALL
NO_CHARGES

@<TRIPOS>ATOM
      1 O1         -4.5197    0.2090    0.0000 OH        1 <0>         0.0000
      2 C1         -3.6968    0.2684    0.0000 CT        1 <0>         0.0000
      3 C2         -3.4368    1.0513    0.0000 CM        1 <0>         0.0000
      4 C3         -2.6993    1.4210    0.0000 CM        1 <0>         0.0000
      5 C4         -1.9163    1.1610    0.0000 CT        1 <0>         0.0000
      6 C5         -1.5466    0.4235    0.0000 CT        1 <0>         0.0000
      7 O2         -0.7723    0.7083    0.0000 OS        1 <0>         0.0000
      8 C6         -0.0669    0.2805    0.0000 CT        1 <0>         0.0000
      9 C7          0.5890    0.7809    0.0000 CT        1 <0>         0.0000
     10 C8          1.3504    0.4631    0.0000 CT        1 <0>         0.0000
     11 O3          2.0063    0.9635    0.0000 OS        1 <0>         0.0000
     12 C9          2.7676    0.6456    0.0000 CT        1 <0>         0.0000
     13 C10         3.3416    1.2382    0.0000 CT        1 <0>         0.0000
     14 C11         4.1628    1.1588    0.0000 CM        1 <0>         0.0000
     15 C12         4.6128    0.4674    0.0000 CM        1 <0>         0.0000
     16 C13         4.3527   -0.3156    0.0000 CT        1 <0>         0.0000
     17 O4          3.5784   -0.6004    0.0000 OS        1 <0>         0.0000
     18 C14         2.8730   -0.1726    0.0000 CT        1 <0>         0.0000
     19 C15         2.2171   -0.6730    0.0000 CT        1 <0>         0.0000
     20 O5          2.3225   -1.4913    0.0000 OH        1 <0>         0.0000
     21 C16         1.4557   -0.3552    0.0000 CT        1 <0>         0.0000
     22 O6          0.7998   -0.8556    0.0000 OS        1 <0>         0.0000
     23 C17         0.0385   -0.5377    0.0000 CT        1 <0>         0.0000
     24 C18        -0.5355   -1.1303    0.0000 CM        1 <0>         0.0000
     25 C19        -1.3567   -1.0510    0.0000 CM        1 <0>         0.0000
     26 C20        -1.8067   -0.3595    0.0000 CT        1 <0>         0.0000
     27 O7         -2.5442   -0.7292    0.0000 OS        1 <0>         0.0000
     28 C21        -3.3271   -0.4691    0.0000 CT        1 <0>         0.0000
     29 C22        -3.8670   -1.0930    0.0000 CT        1 <0>         0.0000
     30 O8         -3.5967   -1.8724    0.0000 OH        1 <0>         0.0000
     31 H1         -3.9065   -0.3967    0.0000 H1        1 <0>         0.0000
     32 H2         -1.9594   -0.9231    0.0000 H1        1 <0>         0.0000
     33 H3          0.1562   -1.1097    0.0000 H1        1 <0>         0.0000
     34 H4          1.5303   -0.9343    0.0000 H1        1 <0>         0.0000
     35 H5          2.8004   -0.7001    0.0000 H1        1 <0>         0.0000
     36 H6          3.1016   -0.7099    0.0000 H1        1 <0>         0.0000
     37 H7          2.6499    1.2176    0.0000 H1        1 <0>         0.0000
     38 H8          1.2758    1.0422    0.0000 H1        1 <0>         0.0000
     39 H9         -0.0980    0.8636    0.0000 H1        1 <0>         0.0000
     40 H10        -1.3317    0.9664    0.0000 H1        1 <0>         0.0000
     41 H11        -4.0553    0.7293    0.0000 H1        1 <0>         0.0000
     42 H12        -4.5197    0.2090    0.0000 HO        1 <0>         0.0000
     43 H13        -3.4368    1.0513    0.0000 HA        1 <0>         0.0000
     44 H14        -2.6993    1.4210    0.0000 HA        1 <0>         0.0000
     45 H15        -1.9163    1.1610    0.0000 HC        1 <0>         0.0000
     46 H16        -1.9163    1.1610    0.0000 HC        1 <0>         0.0000
     47 H17         0.5890    0.7809    0.0000 HC        1 <0>         0.0000
     48 H18         0.5890    0.7809    0.0000 HC        1 <0>         0.0000
     49 H19         3.3416    1.2382    0.0000 HC        1 <0>         0.0000
     50 H20         3.3416    1.2382    0.0000 HC        1 <0>         0.0000
     51 H21         4.1628    1.1588    0.0000 HA        1 <0>         0.0000
     52 H22         4.6128    0.4674    0.0000 HA        1 <0>         0.0000
     53 H23         4.3527   -0.3156    0.0000 H1        1 <0>         0.0000
     54 H24         4.3527   -0.3156    0.0000 H1        1 <0>         0.0000
     55 H25         2.3225   -1.4913    0.0000 HO        1 <0>         0.0000
     56 H26        -0.5355   -1.1303    0.0000 HA        1 <0>         0.0000
     57 H27        -1.3567   -1.0510    0.0000 HA        1 <0>         0.0000
     58 H28        -3.8670   -1.0930    0.0000 H1        1 <0>         0.0000
     59 H29        -3.8670   -1.0930    0.0000 H1        1 <0>         0.0000
     60 H30        -3.5967   -1.8724    0.0000 HO        1 <0>         0.0000
@<TRIPOS>BOND
     1    1    2 1
     2    2    3 1
     3    2   28 1
     4    2   41 1
     5    3    4 2
     6    4    5 1
     7    5    6 1
     8    6    7 1
     9    6   26 1
    10    6   40 1
    11    7    8 1
    12    8    9 1
    13    8   23 1
    14    8   39 1
    15    9   10 1
    16   10   11 1
    17   10   21 1
    18   10   38 1
    19   11   12 1
    20   12   13 1
    21   12   18 1
    22   12   37 1
    23   13   14 1
    24   14   15 2
    25   15   16 1
    26   16   17 1
    27   17   18 1
    28   18   19 1
    29   18   36 1
    30   19   21 1
    31   19   35 1
    32   19   20 1
    33   21   22 1
    34   21   34 1
    35   22   23 1
    36   23   24 1
    37   23   33 1
    38   24   25 2
    39   25   26 1
    40   26   27 1
    41   26   32 1
    42   27   28 1
    43   28   29 1
    44   28   31 1
    45   29   30 1
    46    1   42 1
    47    3   43 1
    48    4   44 1
    49    5   45 1
    50    5   46 1
    51    9   47 1
    52    9   48 1
    53   13   49 1
    54   13   50 1
    55   14   51 1
    56   15   52 1
    57   16   53 1
    58   16   54 1
    59   20   55 1
    60   24   56 1
    61   25   57 1
    62   29   58 1
    63   29   59 1
    64   30   60 1
@<TRIPOS>MOLECULE
*****
   21    21     0     0     0
SMALL
NO_CHARGES

@<TRIPOS>ATOM
      1 C1         12.2744   -7.6089    0.0000 CA        1 <0>         0.0000
      2 C2         12.2744   -8.4339    0.0000 CA        1 <0>         0.0000
      3 C3         11.5599   -7.1964    0.0000 CA        1 <0>         0.0000
      4 C4         11.5599   -8.8464    0.0000 CA        1 <0>         0.0000
      5 C5         10.8455   -7.6089    0.0000 CA        1 <0>         0.0000
      6 C6         10.8455   -8.4339    0.0000 CA        1 <0>         0.0000
      7 C7         11.5599   -6.3714    0.0000 CT        1 <0>         0.0000
      8 C8         12.2743   -5.9589    0.0000 C         1 <0>         0.0000
      9 O1         12.2743   -5.1339    0.0000 O         1 <0>         0.0000
     10 C9         12.9888   -6.3714    0.0000 C         1 <0>         0.0000
     11 O2         12.9888   -7.1964    0.0000 O         1 <0>         0.0000
     12 O3         13.7033   -5.9589    0.0000 OH        1 <0>         0.0000
     13 O4         11.5599   -9.6714    0.0000 OH        1 <0>         0.0000
     14 H1         12.2744   -7.6089    0.0000 HA        1 <0>         0.0000
     15 H2         12.2744   -8.4339    0.0000 HA        1 <0>         0.0000
     16 H3         10.8455   -7.6089    0.0000 HA        1 <0>         0.0000
     17 H4         10.8455   -8.4339    0.0000 HA        1 <0>         0.0000
     18 H5         11.5599   -6.3714    0.0000 HC        1 <0>         0.0000
     19 H6         11.5599   -6.3714    0.0000 HC        1 <0>         0.0000
     20 H7         13.7033   -5.9589    0.0000 HO        1 <0>         0.0000
     21 H8         11.5599   -9.6714    0.0000 HO        1 <0>         0.0000
@<TRIPOS>BOND
     1    1    2 ar
     2    1    3 ar
     3    2    4 ar
     4    3    5 ar
     5    4    6 ar
     6    5    6 ar
     7    3    7 1
     8    7    8 1
     9    8    9 2
    10    8   10 1
    11   10   11 2
    12   10   12 1
    13    4   13 1
    14    1   14 1
    15    2   15 1
    16    5   16 1
    17    6   17 1
    18    7   18 1
    19    7   19 1
    20   12   20 1
    21   13   21 1
@<TRIPOS>MOLECULE
EYK
   26    26     0     0     0
SMALL
NO_CHARGES

@<TRIPOS>ATOM
      1 C1          1.5991    0.8740    0.0000 CT        1 <0>         0.0000
      2 C2          0.8847    0.4615    0.0000 CT        1 <0>         0.0000
      3 C3          0.4722    1.1759    0.0000 CT        1 <0>         0.0000
      4 C4          1.2972   -0.2530    0.0000 CT        1 <0>         0.0000
      5 C5          0.1702    0.0490    0.0000 CA        1 <0>         0.0000
      6 C6          0.1702   -0.7760    0.0000 CA        1 <0>         0.0000
      7 C7         -0.5443   -1.1885    0.0000 CA        1 <0>         0.0000
      8 O1         -0.5443   -2.0135    0.0000 OH        1 <0>         0.0000
      9 C8         -1.2588   -0.7760    0.0000 CA        1 <0>         0.0000
     10 C9         -1.2588    0.0490    0.0000 CA        1 <0>         0.0000
     11 C10        -0.5443    0.4615    0.0000 CA        1 <0>         0.0000
     12 O2         -0.5443    1.2865    0.0000 OH        1 <0>         0.0000
     13 H1          1.5991    0.8740    0.0000 HC        1 <0>         0.0000
     14 H2          1.5991    0.8740    0.0000 HC        1 <0>         0.0000
     15 H3          1.5991    0.8740    0.0000 HC        1 <0>         0.0000
     16 H4          0.4722    1.1759    0.0000 HC        1 <0>         0.0000
     17 H5          0.4722    1.1759    0.0000 HC        1 <0>         0.0000
     18 H6          0.4722    1.1759    0.0000 HC        1 <0>         0.0000
     19 H7          1.2972   -0.2530    0.0000 HC        1 <0>         0.0000
     20 H8          1.2972   -0.2530    0.0000 HC        1 <0>         0.0000
     21 H9          1.2972   -0.2530    0.0000 HC        1 <0>         0.0000
     22 H10         0.1702   -0.7760    0.0000 HA        1 <0>         0.0000
     23 H11        -0.5443   -2.0135    0.0000 HO        1 <0>         0.0000
     24 H12        -1.2588   -0.7760    0.0000 HA        1 <0>         0.0000
     25 H13        -1.2588    0.0490    0.0000 HA        1 <0>         0.0000
     26 H14        -0.5443    1.2865    0.0000 HO        1 <0>         0.0000
@<TRIPOS>BOND
     1    1    2 1
     2    2    3 1
     3    2    4 1
     4    2    5 1
     5    5    6 ar
     6    5   11 ar
     7    6    7 ar
     8    7    8 1
     9    7    9 ar
    10    9   10 ar
    11   10   11 ar
    12   11   12 1
    13    1   13 1
    14    1   14 1
    15    1   15 1
    16    3   16 1
    17    3   17 1
    18    3   18 1
    19    4   19 1
    20    4   20 1
    21    4   21 1
    22    6   22 1
    23    8   23 1
    24    9   24 1
    25   10   25 1
    26   12   26 1
@<TRIPOS>MOLECULE
F24
   57    56     0     0     0
SMALL
NO_CHARGES

@<TRIPOS>ATOM
      1 O1         -5.3799    0.3984    0.0000 OH        1 <0>         0.0000
      2 C1         -4.6100    0.6948    0.0000 C         1 <0>         0.0000
      3 O2         -4.4816    1.5097    0.0000 O         1 <0>         0.0000
      4 C2         -3.9684    0.1762    0.0000 CT        1 <0>         0.0000
      5 C3         -3.1984    0.4725    0.0000 CT        1 <0>         0.0000
      6 C4         -3.0701    1.2875    0.0000 CT        1 <0>         0.0000
      7 C5         -2.5568   -0.0461    0.0000 CT        1 <0>         0.0000
      8 C6         -1.7869    0.2503    0.0000 CT        1 <0>         0.0000
      9 C7         -1.6585    1.0652    0.0000 CT        1 <0>         0.0000
     10 C8         -1.1452   -0.2683    0.0000 CT        1 <0>         0.0000
     11 C9         -0.3753    0.0280    0.0000 CT        1 <0>         0.0000
     12 C10        -0.2470    0.8430    0.0000 CT        1 <0>         0.0000
     13 C11         0.2663   -0.4906    0.0000 CT        1 <0>         0.0000
     14 C12         1.0362   -0.1943    0.0000 CT        1 <0>         0.0000
     15 C13         1.6779   -0.7129    0.0000 CT        1 <0>         0.0000
     16 C14         2.4478   -0.4165    0.0000 CT        1 <0>         0.0000
     17 C15         3.0894   -0.9351    0.0000 CT        1 <0>         0.0000
     18 O3          2.9611   -1.7501    0.0000 OH        1 <0>         0.0000
     19 C16         3.8593   -0.6388    0.0000 CT        1 <0>         0.0000
     20 C17         4.5010   -1.1574    0.0000 CT        1 <0>         0.0000
     21 O4          5.2709   -0.8610    0.0000 OH        1 <0>         0.0000
     22 C18         3.9877    0.1762    0.0000 C         1 <0>         0.0000
     23 O5          4.7576    0.4725    0.0000 O         1 <0>         0.0000
     24 H1         -3.6525    0.8396    0.0000 HC        1 <0>         0.0000
     25 H2         -2.2410    0.6173    0.0000 HC        1 <0>         0.0000
     26 H3         -0.8294    0.3951    0.0000 HC        1 <0>         0.0000
     27 H4          2.5444   -1.1449    0.0000 H1        1 <0>         0.0000
     28 H5          3.7685   -1.2156    0.0000 HC        1 <0>         0.0000
     29 H6         -5.3799    0.3984    0.0000 HO        1 <0>         0.0000
     30 H7         -3.9684    0.1762    0.0000 HC        1 <0>         0.0000
     31 H8         -3.9684    0.1762    0.0000 HC        1 <0>         0.0000
     32 H9         -3.0701    1.2875    0.0000 HC        1 <0>         0.0000
     33 H10        -3.0701    1.2875    0.0000 HC        1 <0>         0.0000
     34 H11        -3.0701    1.2875    0.0000 HC        1 <0>         0.0000
     35 H12        -2.5568   -0.0461    0.0000 HC        1 <0>         0.0000
     36 H13        -2.5568   -0.0461    0.0000 HC        1 <0>         0.0000
     37 H14        -1.6585    1.0652    0.0000 HC        1 <0>         0.0000
     38 H15        -1.6585    1.0652    0.0000 HC        1 <0>         0.0000
     39 H16        -1.6585    1.0652    0.0000 HC        1 <0>         0.0000
     40 H17        -1.1452   -0.2683    0.0000 HC        1 <0>         0.0000
     41 H18        -1.1452   -0.2683    0.0000 HC        1 <0>         0.0000
     42 H19        -0.2470    0.8430    0.0000 HC        1 <0>         0.0000
     43 H20        -0.2470    0.8430    0.0000 HC        1 <0>         0.0000
     44 H21        -0.2470    0.8430    0.0000 HC        1 <0>         0.0000
     45 H22         0.2663   -0.4906    0.0000 HC        1 <0>         0.0000
     46 H23         0.2663   -0.4906    0.0000 HC        1 <0>         0.0000
     47 H24         1.0362   -0.1943    0.0000 HC        1 <0>         0.0000
     48 H25         1.0362   -0.1943    0.0000 HC        1 <0>         0.0000
     49 H26         1.6779   -0.7129    0.0000 HC        1 <0>         0.0000
     50 H27         1.6779   -0.7129    0.0000 HC        1 <0>         0.0000
     51 H28         2.4478   -0.4165    0.0000 HC        1 <0>         0.0000
     52 H29         2.4478   -0.4165    0.0000 HC        1 <0>         0.0000
     53 H30         2.9611   -1.7501    0.0000 HO        1 <0>         0.0000
     54 H31         4.5010   -1.1574    0.0000 H1        1 <0>         0.0000
     55 H32         4.5010   -1.1574    0.0000 H1        1 <0>         0.0000
     56 H33         5.2709   -0.8610    0.0000 HO        1 <0>         0.0000
     57 H34         3.9877    0.1762    0.0000 H4        1 <0>         0.0000
@<TRIPOS>BOND
     1    1    2 1
     2    2    3 2
     3    2    4 1
     4    4    5 1
     5    5    6 1
     6    5    7 1
     7    5   24 1
     8    7    8 1
     9    8    9 1
    10    8   10 1
    11    8   25 1
    12   10   11 1
    13   11   12 1
    14   11   13 1
    15   11   26 1
    16   13   14 1
    17   14   15 1
    18   15   16 1
    19   16   17 1
    20   17   18 1
    21   17   19 1
    22   17   27 1
    23   19   20 1
    24   19   22 1
    25   19   28 1
    26   20   21 1
    27   22   23 2
    28    1   29 1
    29    4   30 1
    30    4   31 1
    31    6   32 1
    32    6   33 1
    33    6   34 1
    34    7   35 1
    35    7   36 1
    36    9   37 1
    37    9   38 1
    38    9   39 1
    39   10   40 1
    40   10   41 1
    41   12   42 1
    42   12   43 1
    43   12   44 1
    44   13   45 1
    45   13   46 1
    46   14   47 1
    47   14   48 1
    48   15   49 1
    49   15   50 1
    50   16   51 1
    51   16   52 1
    52   18   53 1
    53   20   54 1
    54   20   55 1
    55   21   56 1
    56   22   57 1
@<TRIPOS>MOLECULE
FDS
   39    42     0     0     0
SMALL
NO_CHARGES

@<TRIPOS>ATOM
      1 C1         -2.0448    1.1467    0.0000 CA        1 <0>         0.0000
      2 O1         -2.7593    1.5592    0.0000 OH        1 <0>         0.0000
      3 C2         -1.3303    1.5592    0.0000 CA        1 <0>         0.0000
      4 C3         -0.6159    1.1467    0.0000 CA        1 <0>         0.0000
      5 O2          0.0986    1.5592    0.0000 OS        1 <0>         0.0000
      6 C4          0.8131    1.1467    0.0000 CA        1 <0>         0.0000
      7 C5          1.5275    1.5592    0.0000 CA        1 <0>         0.0000
      8 C6          2.2420    1.1467    0.0000 CA        1 <0>         0.0000
      9 O3          2.9565    1.5592    0.0000 OH        1 <0>         0.0000
     10 C7          2.2420    0.3217    0.0000 CA        1 <0>         0.0000
     11 C8          1.5275   -0.0908    0.0000 CA        1 <0>         0.0000
     12 C9          0.8131    0.3217    0.0000 CA        1 <0>         0.0000
     13 C10         0.0986   -0.0908    0.0000 CT        1 <0>         0.0000
     14 C11        -0.6159    0.3217    0.0000 CA        1 <0>         0.0000
     15 C12        -1.3303   -0.0908    0.0000 CA        1 <0>         0.0000
     16 C13        -2.0448    0.3217    0.0000 CA        1 <0>         0.0000
     17 C14         0.0986   -0.9158    0.0000 CA        1 <0>         0.0000
     18 C15         0.8131   -1.3283    0.0000 CA        1 <0>         0.0000
     19 C16         0.8131   -2.1533    0.0000 CA        1 <0>         0.0000
     20 C17         0.0986   -2.5658    0.0000 CA        1 <0>         0.0000
     21 C18        -0.6159   -2.1533    0.0000 CA        1 <0>         0.0000
     22 C19        -0.6159   -1.3283    0.0000 CA        1 <0>         0.0000
     23 C20        -1.3303   -0.9158    0.0000 C         1 <0>         0.0000
     24 O4         -2.0448   -1.3283    0.0000 O         1 <0>         0.0000
     25 O5         -1.8153   -0.2484    0.0000 OH        1 <0>         0.0000
     26 H1         -2.7593    1.5592    0.0000 HO        1 <0>         0.0000
     27 H2         -1.3303    1.5592    0.0000 HA        1 <0>         0.0000
     28 H3          1.5275    1.5592    0.0000 HA        1 <0>         0.0000
     29 H4          2.9565    1.5592    0.0000 HO        1 <0>         0.0000
     30 H5          2.2420    0.3217    0.0000 HA        1 <0>         0.0000
     31 H6          1.5275   -0.0908    0.0000 HA        1 <0>         0.0000
     32 H7          0.0986   -0.0908    0.0000 HC        1 <0>         0.0000
     33 H8         -1.3303   -0.0908    0.0000 HA        1 <0>         0.0000
     34 H9         -2.0448    0.3217    0.0000 HA        1 <0>         0.0000
     35 H10         0.8131   -1.3283    0.0000 HA        1 <0>         0.0000
     36 H11         0.8131   -2.1533    0.0000 HA        1 <0>         0.0000
     37 H12         0.0986   -2.5658    0.0000 HA        1 <0>         0.0000
     38 H13        -0.6159   -2.1533    0.0000 HA        1 <0>         0.0000
     39 H14        -1.8153   -0.2484    0.0000 HO        1 <0>         0.0000
@<TRIPOS>BOND
     1    1    2 1
     2    1    3 ar
     3    1   16 ar
     4    3    4 ar
     5    4    5 1
     6    4   14 ar
     7    5    6 1
     8    6    7 ar
     9    6   12 ar
    10    7    8 ar
    11    8    9 1
    12    8   10 ar
    13   10   11 ar
    14   11   12 ar
    15   12   13 1
    16   13   14 1
    17   13   17 1
    18   14   15 ar
    19   15   16 ar
    20   17   18 ar
    21   17   22 ar
    22   18   19 ar
    23   19   20 ar
    24   20   21 ar
    25   21   22 ar
    26   22   23 1
    27   23   24 2
    28   23   25 1
    29    2   26 1
    30    3   27 1
    31    7   28 1
    32    9   29 1
    33   10   30 1
    34   11   31 1
    35   13   32 1
    36   15   33 1
    37   16   34 1
    38   18   35 1
    39   19   36 1
    40   20   37 1
    41   21   38 1
    42   25   39 1
@<TRIPOS>MOLECULE
*****
   24    24     0     0     0
SMALL
NO_CHARGES

@<TRIPOS>ATOM
      1 O1         16.8663   -9.1650    0.0000 OS        1 <0>         0.0000
      2 O2         18.2953   -9.9900    0.0000 OH        1 <0>         0.0000
      3 O3         19.7242   -5.0399    0.0000 OH        1 <0>         0.0000
      4 O4         18.2953   -5.0399    0.0000 O         1 <0>         0.0000
      5 C1         18.2953   -7.5150    0.0000 CA        1 <0>         0.0000
      6 C2         17.5809   -8.7525    0.0000 CA        1 <0>         0.0000
      7 C3         17.5809   -7.9275    0.0000 CA        1 <0>         0.0000
      8 C4         19.0098   -7.9275    0.0000 CA        1 <0>         0.0000
      9 C5         18.2953   -9.1650    0.0000 CA        1 <0>         0.0000
     10 C6         19.0098   -8.7525    0.0000 CA        1 <0>         0.0000
     11 C7         18.2953   -6.6900    0.0000 CM        1 <0>         0.0000
     12 C8         19.0098   -6.2775    0.0000 CM        1 <0>         0.0000
     13 C9         16.1518   -8.7525    0.0000 CT        1 <0>         0.0000
     14 C10        19.0098   -5.4524    0.0000 C         1 <0>         0.0000
     15 H1         18.2953   -9.9900    0.0000 HO        1 <0>         0.0000
     16 H2         19.7242   -5.0399    0.0000 HO        1 <0>         0.0000
     17 H3         17.5809   -7.9275    0.0000 HA        1 <0>         0.0000
     18 H4         19.0098   -7.9275    0.0000 HA        1 <0>         0.0000
     19 H5         19.0098   -8.7525    0.0000 HA        1 <0>         0.0000
     20 H6         18.2953   -6.6900    0.0000 HA        1 <0>         0.0000
     21 H7         19.0098   -6.2775    0.0000 HA        1 <0>         0.0000
     22 H8         16.1518   -8.7525    0.0000 H1        1 <0>         0.0000
     23 H9         16.1518   -8.7525    0.0000 H1        1 <0>         0.0000
     24 H10        16.1518   -8.7525    0.0000 H1        1 <0>         0.0000
@<TRIPOS>BOND
     1    1    6 1
     2    1   13 1
     3    2    9 1
     4    3   14 1
     5    4   14 2
     6    5    7 ar
     7    5    8 ar
     8    5   11 1
     9    6    7 ar
    10    6    9 ar
    11    8   10 ar
    12    9   10 ar
    13   11   12 2
    14   12   14 1
    15    2   15 1
    16    3   16 1
    17    7   17 1
    18    8   18 1
    19   10   19 1
    20   11   20 1
    21   12   21 1
    22   13   22 1
    23   13   23 1
    24   13   24 1
@<TRIPOS>MOLECULE
*****
   49    52     0     0     0
SMALL
NO_CHARGES

@<TRIPOS>ATOM
      1 C1         23.3972  -11.4754    0.0000 CT        1 <0>         0.0000
      2 C2         23.3972  -12.3004    0.0000 C         1 <0>         0.0000
      3 C3         24.1117  -12.7129    0.0000 CM        1 <0>         0.0000
      4 C4         24.8261  -12.3004    0.0000 CM        1 <0>         0.0000
      5 C5         24.8261  -11.4754    0.0000 CT        1 <0>         0.0000
      6 C6         24.1117  -11.0629    0.0000 CT        1 <0>         0.0000
      7 C7         25.5406  -12.7129    0.0000 CT        1 <0>         0.0000
      8 C8         26.2550  -12.3004    0.0000 CT        1 <0>         0.0000
      9 C9         26.2550  -11.4754    0.0000 CT        1 <0>         0.0000
     10 C10        25.5406  -11.0629    0.0000 CT        1 <0>         0.0000
     11 C11        26.9695  -11.0629    0.0000 CT        1 <0>         0.0000
     12 C12        26.9695  -10.2379    0.0000 CT        1 <0>         0.0000
     13 C13        26.2550   -9.8254    0.0000 CT        1 <0>         0.0000
     14 C14        25.5406  -10.2379    0.0000 CT        1 <0>         0.0000
     15 C15        27.7542  -11.3178    0.0000 CT        1 <0>         0.0000
     16 C16        28.2391  -10.6504    0.0000 CT        1 <0>         0.0000
     17 C17        27.7542   -9.9829    0.0000 CT        1 <0>         0.0000
     18 O1         22.6827  -12.7129    0.0000 O         1 <0>         0.0000
     19 C18        27.0558   -9.4174    0.0000 CT        1 <0>         0.0000
     20 O2         28.0091   -9.1983    0.0000 OH        1 <0>         0.0000
     21 H1         25.5406  -11.8879    0.0000 HC        1 <0>         0.0000
     22 C19        24.8261  -10.6504    0.0000 CT        1 <0>         0.0000
     23 H2         26.2550  -10.6504    0.0000 HC        1 <0>         0.0000
     24 H3         27.0558  -11.8834    0.0000 HC        1 <0>         0.0000
     25 H4         23.3972  -11.4754    0.0000 HC        1 <0>         0.0000
     26 H5         23.3972  -11.4754    0.0000 HC        1 <0>         0.0000
     27 H6         24.1117  -12.7129    0.0000 HA        1 <0>         0.0000
     28 H7         24.1117  -11.0629    0.0000 HC        1 <0>         0.0000
     29 H8         24.1117  -11.0629    0.0000 HC        1 <0>         0.0000
     30 H9         25.5406  -12.7129    0.0000 HC        1 <0>         0.0000
     31 H10        25.5406  -12.7129    0.0000 HC        1 <0>         0.0000
     32 H11        26.2550  -12.3004    0.0000 HC        1 <0>         0.0000
     33 H12        26.2550  -12.3004    0.0000 HC        1 <0>         0.0000
     34 H13        26.2550   -9.8254    0.0000 HC        1 <0>         0.0000
     35 H14        26.2550   -9.8254    0.0000 HC        1 <0>         0.0000
     36 H15        25.5406  -10.2379    0.0000 HC        1 <0>         0.0000
     37 H16        25.5406  -10.2379    0.0000 HC        1 <0>         0.0000
     38 H17        27.7542  -11.3178    0.0000 HC        1 <0>         0.0000
     39 H18        27.7542  -11.3178    0.0000 HC        1 <0>         0.0000
     40 H19        28.2391  -10.6504    0.0000 HC        1 <0>         0.0000
     41 H20        28.2391  -10.6504    0.0000 HC        1 <0>         0.0000
     42 H21        27.7542   -9.9829    0.0000 H1        1 <0>         0.0000
     43 H22        27.0558   -9.4174    0.0000 HC        1 <0>         0.0000
     44 H23        27.0558   -9.4174    0.0000 HC        1 <0>         0.0000
     45 H24        27.0558   -9.4174    0.0000 HC        1 <0>         0.0000
     46 H25        28.0091   -9.1983    0.0000 HO        1 <0>         0.0000
     47 H26        24.8261  -10.6504    0.0000 HC        1 <0>         0.0000
     48 H27        24.8261  -10.6504    0.0000 HC        1 <0>         0.0000
     49 H28        24.8261  -10.6504    0.0000 HC        1 <0>         0.0000
@<TRIPOS>BOND
     1    1    2 1
     2    2    3 1
     3    3    4 2
     4    4    5 1
     5    5    6 1
     6    1    6 1
     7    4    7 1
     8    7    8 1
     9    8    9 1
    10    9   10 1
    11    5   10 1
    12    9   11 1
    13   11   12 1
    14   12   13 1
    15   13   14 1
    16   10   14 1
    17   11   15 1
    18   15   16 1
    19   16   17 1
    20   12   17 1
    21    2   18 2
    22   12   19 1
    23   17   20 1
    24   10   21 1
    25    5   22 1
    26    9   23 1
    27   11   24 1
    28    1   25 1
    29    1   26 1
    30    3   27 1
    31    6   28 1
    32    6   29 1
    33    7   30 1
    34    7   31 1
    35    8   32 1
    36    8   33 1
    37   13   34 1
    38   13   35 1
    39   14   36 1
    40   14   37 1
    41   15   38 1
    42   15   39 1
    43   16   40 1
    44   16   41 1
    45   17   42 1
    46   19   43 1
    47   19   44 1
    48   19   45 1
    49   20   46 1
    50   22   47 1
    51   22   48 1
    52   22   49 1
@<TRIPOS>MOLECULE
*****
   27    29     0     0     0
SMALL
NO_CHARGES

@<TRIPOS>ATOM
      1 O1         28.6022  -19.1936    0.0000 OS        1 <0>         0.0000
      2 O2         28.6022  -21.6684    0.0000 O         1 <0>         0.0000
      3 C1         27.8878  -19.6060    0.0000 CP        1 <0>         0.0000
      4 C2         29.3165  -19.6060    0.0000 CB        1 <0>         0.0000
      5 C3         28.6022  -20.8435    0.0000 C         1 <0>         0.0000
      6 C4         27.1735  -19.1936    0.0000 CP        1 <0>         0.0000
      7 C5         29.3165  -20.4310    0.0000 CB        1 <0>         0.0000
      8 C6         27.8878  -20.4310    0.0000 CA        1 <0>         0.0000
      9 C7         30.0541  -19.1650    0.0000 CA        1 <0>         0.0000
     10 C8         26.4590  -19.6060    0.0000 CA        1 <0>         0.0000
     11 C9         27.1735  -18.3687    0.0000 CA        1 <0>         0.0000
     12 C10        30.0541  -20.8721    0.0000 CA        1 <0>         0.0000
     13 C11        30.8014  -19.5889    0.0000 CA        1 <0>         0.0000
     14 C12        25.7447  -19.1936    0.0000 CA        1 <0>         0.0000
     15 C13        26.4590  -17.9562    0.0000 CA        1 <0>         0.0000
     16 C14        30.8014  -20.4481    0.0000 CA        1 <0>         0.0000
     17 C15        25.7447  -18.3687    0.0000 CA        1 <0>         0.0000
     18 H1         27.8878  -20.4310    0.0000 HA        1 <0>         0.0000
     19 H2         30.0541  -19.1650    0.0000 HA        1 <0>         0.0000
     20 H3         26.4590  -19.6060    0.0000 HA        1 <0>         0.0000
     21 H4         27.1735  -18.3687    0.0000 HA        1 <0>         0.0000
     22 H5         30.0541  -20.8721    0.0000 HA        1 <0>         0.0000
     23 H6         30.8014  -19.5889    0.0000 HA        1 <0>         0.0000
     24 H7         25.7447  -19.1936    0.0000 HA        1 <0>         0.0000
     25 H8         26.4590  -17.9562    0.0000 HA        1 <0>         0.0000
     26 H9         30.8014  -20.4481    0.0000 HA        1 <0>         0.0000
     27 H10        25.7447  -18.3687    0.0000 HA        1 <0>         0.0000
@<TRIPOS>BOND
     1    1    3 1
     2    1    4 1
     3    2    5 2
     4    3    6 1
     5    3    8 2
     6    4    7 ar
     7    4    9 ar
     8    5    7 1
     9    5    8 1
    10    6   10 ar
    11    6   11 ar
    12    7   12 ar
    13    9   13 ar
    14   10   14 ar
    15   11   15 ar
    16   12   16 ar
    17   13   16 ar
    18   14   17 ar
    19   15   17 ar
    20    8   18 1
    21    9   19 1
    22   10   20 1
    23   11   21 1
    24   12   22 1
    25   13   23 1
    26   14   24 1
    27   15   25 1
    28   16   26 1
    29   17   27 1
@<TRIPOS>MOLECULE
FRR
   48    49     0     0     0
SMALL
NO_CHARGES

@<TRIPOS>ATOM
      1 C1         -2.6947    1.3321    0.0000 CA        1 <0>         0.0000
      2 C2         -1.9802    0.9196    0.0000 CA        1 <0>         0.0000
      3 C3         -1.9802    0.0946    0.0000 CA        1 <0>         0.0000
      4 C4         -2.6947   -0.3179    0.0000 CA        1 <0>         0.0000
      5 C5         -3.4091    0.0946    0.0000 CA        1 <0>         0.0000
      6 C6         -3.4091    0.9196    0.0000 CA        1 <0>         0.0000
      7 C7         -1.2657   -0.3179    0.0000 CM        1 <0>         0.0000
      8 C8         -1.2657   -1.1429    0.0000 CM        1 <0>         0.0000
      9 O1         -1.2657    2.1571    0.0000 OS        1 <0>         0.0000
     10 C9         -1.2657    1.3321    0.0000 C         1 <0>         0.0000
     11 C10        -0.5513    2.5696    0.0000 CT        1 <0>         0.0000
     12 C11         0.1632    2.1571    0.0000 CT        1 <0>         0.0000
     13 C12         0.1632   -1.1429    0.0000 CT        1 <0>         0.0000
     14 C13        -0.5513   -1.5554    0.0000 CT        1 <0>         0.0000
     15 C14         0.1632   -0.3179    0.0000 CT        1 <0>         0.0000
     16 C15         0.8777    0.0946    0.0000 C         1 <0>         0.0000
     17 C16         0.8777    0.9196    0.0000 CM        1 <0>         0.0000
     18 C17         0.1632    1.3321    0.0000 CM        1 <0>         0.0000
     19 O2         -0.5513    0.9196    0.0000 O         1 <0>         0.0000
     20 O3          1.5922   -0.3179    0.0000 O         1 <0>         0.0000
     21 O4          0.8777   -1.5554    0.0000 OH        1 <0>         0.0000
     22 O5         -0.5513    0.0946    0.0000 OH        1 <0>         0.0000
     23 O6         -2.6947    2.1571    0.0000 OH        1 <0>         0.0000
     24 O7         -4.1236   -0.3179    0.0000 OS        1 <0>         0.0000
     25 C18        -4.1236   -1.1429    0.0000 CT        1 <0>         0.0000
     26 C19        -0.5513    3.3946    0.0000 CT        1 <0>         0.0000
     27 H1          0.1632   -1.7268    0.0000 H1        1 <0>         0.0000
     28 H2         -0.3425   -0.6099    0.0000 H1        1 <0>         0.0000
     29 H3         -1.0569    2.8616    0.0000 H1        1 <0>         0.0000
     30 H4         -2.6947   -0.3179    0.0000 HA        1 <0>         0.0000
     31 H5         -3.4091    0.9196    0.0000 HA        1 <0>         0.0000
     32 H6         -1.2657   -0.3179    0.0000 HA        1 <0>         0.0000
     33 H7         -1.2657   -1.1429    0.0000 HA        1 <0>         0.0000
     34 H8          0.1632    2.1571    0.0000 HC        1 <0>         0.0000
     35 H9          0.1632    2.1571    0.0000 HC        1 <0>         0.0000
     36 H10        -0.5513   -1.5554    0.0000 HC        1 <0>         0.0000
     37 H11        -0.5513   -1.5554    0.0000 HC        1 <0>         0.0000
     38 H12         0.8777    0.9196    0.0000 HA        1 <0>         0.0000
     39 H13         0.1632    1.3321    0.0000 HA        1 <0>         0.0000
     40 H14         0.8777   -1.5554    0.0000 HO        1 <0>         0.0000
     41 H15        -0.5513    0.0946    0.0000 HO        1 <0>         0.0000
     42 H16        -2.6947    2.1571    0.0000 HO        1 <0>         0.0000
     43 H17        -4.1236   -1.1429    0.0000 H1        1 <0>         0.0000
     44 H18        -4.1236   -1.1429    0.0000 H1        1 <0>         0.0000
     45 H19        -4.1236   -1.1429    0.0000 H1        1 <0>         0.0000
     46 H20        -0.5513    3.3946    0.0000 HC        1 <0>         0.0000
     47 H21        -0.5513    3.3946    0.0000 HC        1 <0>         0.0000
     48 H22        -0.5513    3.3946    0.0000 HC        1 <0>         0.0000
@<TRIPOS>BOND
     1    1   23 1
     2    1    6 ar
     3    1    2 ar
     4    2   10 1
     5    2    3 ar
     6    3    4 ar
     7    3    7 1
     8    4    5 ar
     9    5    6 ar
    10    5   24 1
    11    7    8 2
    12    8   14 1
    13    9   11 1
    14    9   10 1
    15   10   19 2
    16   11   12 1
    17   11   29 1
    18   11   26 1
    19   12   18 1
    20   13   14 1
    21   13   27 1
    22   13   21 1
    23   13   15 1
    24   15   28 1
    25   15   22 1
    26   15   16 1
    27   16   20 2
    28   16   17 1
    29   17   18 2
    30   24   25 1
    31    4   30 1
    32    6   31 1
    33    7   32 1
    34    8   33 1
    35   12   34 1
    36   12   35 1
    37   14   36 1
    38   14   37 1
    39   17   38 1
    40   18   39 1
    41   21   40 1
    42   22   41 1
    43   23   42 1
    44   25   43 1
    45   25   44 1
    46   25   45 1
    47   26   46 1
    48   26   47 1
    49   26   48 1
@<TRIPOS>MOLECULE
FSE
   31    33     0     0     0
SMALL
NO_CHARGES

@<TRIPOS>ATOM
      1 C1         -2.6949   -0.8661    0.0000 CA        1 <0>         0.0000
      2 C2         -1.9804   -1.2786    0.0000 CA        1 <0>         0.0000
      3 C3         -1.2659   -0.8661    0.0000 CB        1 <0>         0.0000
      4 C4         -1.2659   -0.0411    0.0000 CB        1 <0>         0.0000
      5 C5         -1.9804    0.3714    0.0000 CA        1 <0>         0.0000
      6 C6         -2.6949   -0.0411    0.0000 CA        1 <0>         0.0000
      7 C7         -0.5515   -1.2786    0.0000 C         1 <0>         0.0000
      8 C8          0.1630   -0.8661    0.0000 CA        1 <0>         0.0000
      9 C9          0.1630   -0.0411    0.0000 CP        1 <0>         0.0000
     10 C10         0.8775    0.3714    0.0000 CP        1 <0>         0.0000
     11 C11         0.8775    1.1964    0.0000 CA        1 <0>         0.0000
     12 C12         1.5919    1.6089    0.0000 CA        1 <0>         0.0000
     13 C13         2.3064    1.1964    0.0000 CA        1 <0>         0.0000
     14 C14         2.3064    0.3714    0.0000 CA        1 <0>         0.0000
     15 C15         1.5919   -0.0411    0.0000 CA        1 <0>         0.0000
     16 O1         -0.5515    0.3714    0.0000 OS        1 <0>         0.0000
     17 O2         -0.5515   -2.1036    0.0000 O         1 <0>         0.0000
     18 O3          3.0209   -0.0411    0.0000 OH        1 <0>         0.0000
     19 O4          3.0209    1.6089    0.0000 OH        1 <0>         0.0000
     20 O5          0.8775   -1.2786    0.0000 OH        1 <0>         0.0000
     21 O6         -3.4093    0.3714    0.0000 OH        1 <0>         0.0000
     22 H1         -2.6949   -0.8661    0.0000 HA        1 <0>         0.0000
     23 H2         -1.9804   -1.2786    0.0000 HA        1 <0>         0.0000
     24 H3         -1.9804    0.3714    0.0000 HA        1 <0>         0.0000
     25 H4          0.8775    1.1964    0.0000 HA        1 <0>         0.0000
     26 H5          1.5919    1.6089    0.0000 HA        1 <0>         0.0000
     27 H6          1.5919   -0.0411    0.0000 HA        1 <0>         0.0000
     28 H7          3.0209   -0.0411    0.0000 HO        1 <0>         0.0000
     29 H8          3.0209    1.6089    0.0000 HO        1 <0>         0.0000
     30 H9          0.8775   -1.2786    0.0000 HO        1 <0>         0.0000
     31 H10        -3.4093    0.3714    0.0000 HO        1 <0>         0.0000
@<TRIPOS>BOND
     1    1    2 ar
     2    1    6 ar
     3    2    3 ar
     4    3    4 ar
     5    3    7 1
     6    4    5 ar
     7    4   16 1
     8    5    6 ar
     9    6   21 1
    10    7    8 1
    11    7   17 2
    12    8    9 2
    13    8   20 1
    14    9   10 1
    15    9   16 1
    16   10   11 ar
    17   10   15 ar
    18   11   12 ar
    19   12   13 ar
    20   13   14 ar
    21   13   19 1
    22   14   15 ar
    23   14   18 1
    24    1   22 1
    25    2   23 1
    26    5   24 1
    27   11   25 1
    28   12   26 1
    29   15   27 1
    30   18   28 1
    31   19   29 1
    32   20   30 1
    33   21   31 1
@<TRIPOS>MOLECULE
*****
   34    35     0     0     0
SMALL
NO_CHARGES

@<TRIPOS>ATOM
      1 O1         31.2785  -18.6025    0.0000 O         1 <0>         0.0000
      2 O2         33.4219  -19.8400    0.0000 OH        1 <0>         0.0000
      3 O3         30.5640  -19.8400    0.0000 OH        1 <0>         0.0000
      4 O4         31.9930  -22.3151    0.0000 OH        1 <0>         0.0000
      5 O5         35.5654  -16.1275    0.0000 OH        1 <0>         0.0000
      6 C1         32.7075  -17.7775    0.0000 CT        1 <0>         0.0000
      7 C2         32.7075  -18.6025    0.0000 CT        1 <0>         0.0000
      8 C3         33.4219  -17.3650    0.0000 CA        1 <0>         0.0000
      9 C4         31.9930  -19.0150    0.0000 C         1 <0>         0.0000
     10 C5         31.9930  -19.8400    0.0000 CA        1 <0>         0.0000
     11 C6         33.4219  -16.5400    0.0000 CA        1 <0>         0.0000
     12 C7         34.1365  -17.7775    0.0000 CA        1 <0>         0.0000
     13 C8         32.7075  -20.2526    0.0000 CA        1 <0>         0.0000
     14 C9         31.2785  -20.2526    0.0000 CA        1 <0>         0.0000
     15 C10        32.7075  -21.0776    0.0000 CA        1 <0>         0.0000
     16 C11        31.2785  -21.0776    0.0000 CA        1 <0>         0.0000
     17 C12        34.1365  -16.1275    0.0000 CA        1 <0>         0.0000
     18 C13        34.8509  -17.3650    0.0000 CA        1 <0>         0.0000
     19 C14        31.9930  -21.4901    0.0000 CA        1 <0>         0.0000
     20 C15        34.8509  -16.5400    0.0000 CA        1 <0>         0.0000
     21 H1         33.4219  -19.8400    0.0000 HO        1 <0>         0.0000
     22 H2         30.5640  -19.8400    0.0000 HO        1 <0>         0.0000
     23 H3         31.9930  -22.3151    0.0000 HO        1 <0>         0.0000
     24 H4         35.5654  -16.1275    0.0000 HO        1 <0>         0.0000
     25 H5         32.7075  -17.7775    0.0000 HC        1 <0>         0.0000
     26 H6         32.7075  -17.7775    0.0000 HC        1 <0>         0.0000
     27 H7         32.7075  -18.6025    0.0000 HC        1 <0>         0.0000
     28 H8         32.7075  -18.6025    0.0000 HC        1 <0>         0.0000
     29 H9         33.4219  -16.5400    0.0000 HA        1 <0>         0.0000
     30 H10        34.1365  -17.7775    0.0000 HA        1 <0>         0.0000
     31 H11        32.7075  -21.0776    0.0000 HA        1 <0>         0.0000
     32 H12        31.2785  -21.0776    0.0000 HA        1 <0>         0.0000
     33 H13        34.1365  -16.1275    0.0000 HA        1 <0>         0.0000
     34 H14        34.8509  -17.3650    0.0000 HA        1 <0>         0.0000
@<TRIPOS>BOND
     1    1    9 2
     2    2   13 1
     3    3   14 1
     4    4   19 1
     5    5   20 1
     6    6    7 1
     7    6    8 1
     8    7    9 1
     9    8   11 ar
    10    8   12 ar
    11    9   10 1
    12   10   13 ar
    13   10   14 ar
    14   11   17 ar
    15   12   18 ar
    16   13   15 ar
    17   14   16 ar
    18   15   19 ar
    19   16   19 ar
    20   17   20 ar
    21   18   20 ar
    22    2   21 1
    23    3   22 1
    24    4   23 1
    25    5   24 1
    26    6   25 1
    27    6   26 1
    28    7   27 1
    29    7   28 1
    30   11   29 1
    31   12   30 1
    32   15   31 1
    33   16   32 1
    34   17   33 1
    35   18   34 1
@<TRIPOS>MOLECULE
*****
   47    51     0     0     0
SMALL
NO_CHARGES

@<TRIPOS>ATOM
      1 C1         24.3401  -12.6395    0.0000 CT        1 <0>         0.0000
      2 C2         25.7659  -12.6395    0.0000 CT        1 <0>         0.0000
      3 C3         24.3401  -13.4601    0.0000 CT        1 <0>         0.0000
      4 O1         24.3401  -11.8226    0.0000 OS        1 <0>         0.0000
      5 C4         23.6253  -12.2310    0.0000 CM        1 <0>         0.0000
      6 C5         25.7659  -13.4601    0.0000 CT        1 <0>         0.0000
      7 C6         26.4806  -12.2197    0.0000 CT        1 <0>         0.0000
      8 C7         25.0511  -13.8761    0.0000 CT        1 <0>         0.0000
      9 C8         23.6253  -13.8800    0.0000 CT        1 <0>         0.0000
     10 C9         23.1866  -13.2295    0.0000 C         1 <0>         0.0000
     11 C10        22.9180  -12.6395    0.0000 CM        1 <0>         0.0000
     12 C11        26.4845  -13.8761    0.0000 CT        1 <0>         0.0000
     13 C12        25.7621  -14.5267    0.0000 CT        1 <0>         0.0000
     14 C13        27.1954  -12.6319    0.0000 CT        1 <0>         0.0000
     15 C14        25.0511  -14.9729    0.0000 C         1 <0>         0.0000
     16 C15        22.9180  -13.4601    0.0000 CT        1 <0>         0.0000
     17 C16        23.6214  -14.6931    0.0000 CT        1 <0>         0.0000
     18 O2         23.7878  -13.1349    0.0000 O         1 <0>         0.0000
     19 C17        27.1992  -13.4639    0.0000 CT        1 <0>         0.0000
     20 C18        27.1954  -14.5267    0.0000 CM        1 <0>         0.0000
     21 O3         24.3476  -15.3738    0.0000 OH        1 <0>         0.0000
     22 O4         25.7584  -15.3738    0.0000 O         1 <0>         0.0000
     23 O5         22.2071  -13.8686    0.0000 OH        1 <0>         0.0000
     24 O6         28.0161  -13.4601    0.0000 OH        1 <0>         0.0000
     25 C19        27.7741  -15.1053    0.0000 CM        1 <0>         0.0000
     26 H1         25.7621  -11.8188    0.0000 HC        1 <0>         0.0000
     27 H2         24.3401  -14.2771    0.0000 HC        1 <0>         0.0000
     28 H3         23.6253  -12.2310    0.0000 HA        1 <0>         0.0000
     29 H4         26.4806  -12.2197    0.0000 HC        1 <0>         0.0000
     30 H5         26.4806  -12.2197    0.0000 HC        1 <0>         0.0000
     31 H6         25.0511  -13.8761    0.0000 HC        1 <0>         0.0000
     32 H7         22.9180  -12.6395    0.0000 HA        1 <0>         0.0000
     33 H8         26.4845  -13.8761    0.0000 HC        1 <0>         0.0000
     34 H9         26.4845  -13.8761    0.0000 HC        1 <0>         0.0000
     35 H10        25.7621  -14.5267    0.0000 HC        1 <0>         0.0000
     36 H11        25.7621  -14.5267    0.0000 HC        1 <0>         0.0000
     37 H12        27.1954  -12.6319    0.0000 HC        1 <0>         0.0000
     38 H13        27.1954  -12.6319    0.0000 HC        1 <0>         0.0000
     39 H14        22.9180  -13.4601    0.0000 H1        1 <0>         0.0000
     40 H15        23.6214  -14.6931    0.0000 HC        1 <0>         0.0000
     41 H16        23.6214  -14.6931    0.0000 HC        1 <0>         0.0000
     42 H17        23.6214  -14.6931    0.0000 HC        1 <0>         0.0000
     43 H18        24.3476  -15.3738    0.0000 HO        1 <0>         0.0000
     44 H19        22.2071  -13.8686    0.0000 HO        1 <0>         0.0000
     45 H20        28.0161  -13.4601    0.0000 HO        1 <0>         0.0000
     46 H21        27.7741  -15.1053    0.0000 HA        1 <0>         0.0000
     47 H22        27.7741  -15.1053    0.0000 HA        1 <0>         0.0000
@<TRIPOS>BOND
     1    1    2 1
     2    1    3 1
     3    1    4 1
     4    1    5 1
     5    2    6 1
     6    2    7 1
     7    3    8 1
     8    3    9 1
     9    4   10 1
    10    5   11 2
    11    6   12 1
    12    6   13 1
    13    7   14 1
    14    8   15 1
    15    9   16 1
    16    9   17 1
    17   10   18 2
    18   12   19 1
    19   13   20 1
    20   15   21 1
    21   15   22 2
    22   16   23 1
    23   19   24 1
    24   20   25 2
    25    6    8 1
    26    9   10 1
    27   11   16 1
    28   14   19 1
    29   19   20 1
    30    2   26 1
    31    3   27 1
    32    5   28 1
    33    7   29 1
    34    7   30 1
    35    8   31 1
    36   11   32 1
    37   12   33 1
    38   12   34 1
    39   13   35 1
    40   13   36 1
    41   14   37 1
    42   14   38 1
    43   16   39 1
    44   17   40 1
    45   17   41 1
    46   17   42 1
    47   21   43 1
    48   23   44 1
    49   24   45 1
    50   25   46 1
    51   25   47 1
@<TRIPOS>MOLECULE
GA4
   48    52     0     0     0
SMALL
NO_CHARGES

@<TRIPOS>ATOM
      1 C1         -1.6646    0.0690    0.0000 CT        1 <0>         0.0000
      2 C2         -2.2023    0.4649    0.0000 CT        1 <0>         0.0000
      3 C3         -2.0176   -0.3391    0.0000 CT        1 <0>         0.0000
      4 O1         -2.5045   -1.0001    0.0000 OH        1 <0>         0.0000
      5 C4         -1.0958   -0.2699    0.0000 CT        1 <0>         0.0000
      6 C5         -0.5134   -0.6744    0.0000 CT        1 <0>         0.0000
      7 C6          0.3118   -0.7457    0.0000 CT        1 <0>         0.0000
      8 C7          0.7188   -1.4588    0.0000 C         1 <0>         0.0000
      9 O2          1.5398   -1.4628    0.0000 O         1 <0>         0.0000
     10 O3          0.3047   -2.1677    0.0000 OH        1 <0>         0.0000
     11 C8          0.6747    0.0110    0.0000 CT        1 <0>         0.0000
     12 C9          0.0008    0.5798    0.0000 CT        1 <0>         0.0000
     13 C10        -0.6993    0.1253    0.0000 CT        1 <0>         0.0000
     14 C11         0.1301    1.4441    0.0000 CT        1 <0>         0.0000
     15 C12         0.9471    1.7037    0.0000 CT        1 <0>         0.0000
     16 C13         1.5875    1.1295    0.0000 CT        1 <0>         0.0000
     17 C14         1.0882    0.5836    0.0000 CT        1 <0>         0.0000
     18 C15         1.5237   -0.2587    0.0000 CT        1 <0>         0.0000
     19 C16         2.0702    0.4219    0.0000 CM        1 <0>         0.0000
     20 C17         2.8905    0.3900    0.0000 CM        1 <0>         0.0000
     21 C18        -0.8332   -1.0478    0.0000 CT        1 <0>         0.0000
     22 C19        -0.8185    0.4527    0.0000 C         1 <0>         0.0000
     23 O4         -1.4637    0.9602    0.0000 O         1 <0>         0.0000
     24 O5         -0.2241    0.8631    0.0000 OS        1 <0>         0.0000
     25 H1         -2.5865   -0.2211    0.0000 H1        1 <0>         0.0000
     26 H2         -0.7108   -1.2209    0.0000 HC        1 <0>         0.0000
     27 H3         -0.0014   -1.2352    0.0000 HC        1 <0>         0.0000
     28 H4         -0.4878    0.8942    0.0000 HC        1 <0>         0.0000
     29 H5          2.0247    1.5124    0.0000 HC        1 <0>         0.0000
     30 H6         -1.6646    0.0690    0.0000 HC        1 <0>         0.0000
     31 H7         -1.6646    0.0690    0.0000 HC        1 <0>         0.0000
     32 H8         -2.2023    0.4649    0.0000 HC        1 <0>         0.0000
     33 H9         -2.2023    0.4649    0.0000 HC        1 <0>         0.0000
     34 H10        -2.5045   -1.0001    0.0000 HO        1 <0>         0.0000
     35 H11         0.3047   -2.1677    0.0000 HO        1 <0>         0.0000
     36 H12         0.1301    1.4441    0.0000 HC        1 <0>         0.0000
     37 H13         0.1301    1.4441    0.0000 HC        1 <0>         0.0000
     38 H14         0.9471    1.7037    0.0000 HC        1 <0>         0.0000
     39 H15         0.9471    1.7037    0.0000 HC        1 <0>         0.0000
     40 H16         1.0882    0.5836    0.0000 HC        1 <0>         0.0000
     41 H17         1.0882    0.5836    0.0000 HC        1 <0>         0.0000
     42 H18         1.5237   -0.2587    0.0000 HC        1 <0>         0.0000
     43 H19         1.5237   -0.2587    0.0000 HC        1 <0>         0.0000
     44 H20         2.8905    0.3900    0.0000 HA        1 <0>         0.0000
     45 H21         2.8905    0.3900    0.0000 HA        1 <0>         0.0000
     46 H22        -0.8332   -1.0478    0.0000 HC        1 <0>         0.0000
     47 H23        -0.8332   -1.0478    0.0000 HC        1 <0>         0.0000
     48 H24        -0.8332   -1.0478    0.0000 HC        1 <0>         0.0000
@<TRIPOS>BOND
     1    1    2 1
     2    1   13 1
     3    2    3 1
     4    3    4 1
     5    3    5 1
     6    3   25 1
     7    5    6 1
     8    5   21 1
     9    5   22 1
    10    6    7 1
    11    6   13 1
    12    6   26 1
    13    7    8 1
    14    7   11 1
    15    7   27 1
    16    8    9 2
    17    8   10 1
    18   11   12 1
    19   11   17 1
    20   11   18 1
    21   12   13 1
    22   12   14 1
    23   12   28 1
    24   13   24 1
    25   14   15 1
    26   15   16 1
    27   16   17 1
    28   16   19 1
    29   16   29 1
    30   18   19 1
    31   19   20 2
    32   22   23 2
    33   22   24 1
    34    1   30 1
    35    1   31 1
    36    2   32 1
    37    2   33 1
    38    4   34 1
    39   10   35 1
    40   14   36 1
    41   14   37 1
    42   15   38 1
    43   15   39 1
    44   17   40 1
    45   17   41 1
    46   18   42 1
    47   18   43 1
    48   20   44 1
    49   20   45 1
    50   21   46 1
    51   21   47 1
    52   21   48 1
@<TRIPOS>MOLECULE
GRR
   38    39     0     0     0
SMALL
NO_CHARGES

@<TRIPOS>ATOM
      1 C1         -0.0913    3.1168    0.0000 CT        1 <0>         0.0000
      2 C2         -0.8058    2.7043    0.0000 CT        1 <0>         0.0000
      3 C3         -0.8058    1.8793    0.0000 CA        1 <0>         0.0000
      4 C4         -1.5202    1.4668    0.0000 CA        1 <0>         0.0000
      5 C5         -1.5202    0.6418    0.0000 CA        1 <0>         0.0000
      6 C6         -0.0913    1.4668    0.0000 CA        1 <0>         0.0000
      7 C7         -0.0913    0.6418    0.0000 CA        1 <0>         0.0000
      8 C8         -0.8058    0.2293    0.0000 CA        1 <0>         0.0000
      9 O1         -0.8058   -0.5957    0.0000 OS        1 <0>         0.0000
     10 C9         -0.0913   -1.0082    0.0000 CT        1 <0>         0.0000
     11 C10         0.6232   -0.5957    0.0000 C         1 <0>         0.0000
     12 O2          0.6232    0.2293    0.0000 OH        1 <0>         0.0000
     13 O3          1.3377   -1.0082    0.0000 O         1 <0>         0.0000
     14 C11        -0.0913   -1.8332    0.0000 CT        1 <0>         0.0000
     15 C12         0.6232   -2.2457    0.0000 CA        1 <0>         0.0000
     16 C13         0.6232   -3.0707    0.0000 CA        1 <0>         0.0000
     17 C14         1.3377   -3.4832    0.0000 CA        1 <0>         0.0000
     18 C15         2.0521   -3.0707    0.0000 CA        1 <0>         0.0000
     19 C16         2.0521   -2.2457    0.0000 CA        1 <0>         0.0000
     20 C17         1.3377   -1.8332    0.0000 CA        1 <0>         0.0000
     21 H1         -0.0913   -0.4243    0.0000 H1        1 <0>         0.0000
     22 H2         -0.0913    3.1168    0.0000 HC        1 <0>         0.0000
     23 H3         -0.0913    3.1168    0.0000 HC        1 <0>         0.0000
     24 H4         -0.0913    3.1168    0.0000 HC        1 <0>         0.0000
     25 H5         -0.8058    2.7043    0.0000 HC        1 <0>         0.0000
     26 H6         -0.8058    2.7043    0.0000 HC        1 <0>         0.0000
     27 H7         -1.5202    1.4668    0.0000 HA        1 <0>         0.0000
     28 H8         -1.5202    0.6418    0.0000 HA        1 <0>         0.0000
     29 H9         -0.0913    1.4668    0.0000 HA        1 <0>         0.0000
     30 H10        -0.0913    0.6418    0.0000 HA        1 <0>         0.0000
     31 H11         0.6232    0.2293    0.0000 HO        1 <0>         0.0000
     32 H12        -0.0913   -1.8332    0.0000 HC        1 <0>         0.0000
     33 H13        -0.0913   -1.8332    0.0000 HC        1 <0>         0.0000
     34 H14         0.6232   -3.0707    0.0000 HA        1 <0>         0.0000
     35 H15         1.3377   -3.4832    0.0000 HA        1 <0>         0.0000
     36 H16         2.0521   -3.0707    0.0000 HA        1 <0>         0.0000
     37 H17         2.0521   -2.2457    0.0000 HA        1 <0>         0.0000
     38 H18         1.3377   -1.8332    0.0000 HA        1 <0>         0.0000
@<TRIPOS>BOND
     1    1    2 1
     2    2    3 1
     3    3    6 ar
     4    3    4 ar
     5    4    5 ar
     6    5    8 ar
     7    6    7 ar
     8    7    8 ar
     9    8    9 1
    10    9   10 1
    11   10   11 1
    12   10   21 1
    13   11   13 2
    14   11   12 1
    15   10   14 1
    16   14   15 1
    17   15   16 ar
    18   16   17 ar
    19   17   18 ar
    20   18   19 ar
    21   19   20 ar
    22   15   20 ar
    23    1   22 1
    24    1   23 1
    25    1   24 1
    26    2   25 1
    27    2   26 1
    28    4   27 1
    29    5   28 1
    30    6   29 1
    31    7   30 1
    32   12   31 1
    33   14   32 1
    34   14   33 1
    35   16   34 1
    36   17   35 1
    37   18   36 1
    38   19   37 1
    39   20   38 1
@<TRIPOS>MOLECULE
HE7
   55    58     0     0     0
SMALL
NO_CHARGES

@<TRIPOS>ATOM
      1 O1         -5.1701    0.4383    0.0000 O         1 <0>         0.0000
      2 C1         -4.4557    0.0258    0.0000 C         1 <0>         0.0000
      3 O2         -4.4557   -0.7992    0.0000 OH        1 <0>         0.0000
      4 C2         -3.7412    0.4383    0.0000 CT        1 <0>         0.0000
      5 C3         -3.0267    0.0258    0.0000 CT        1 <0>         0.0000
      6 C4         -2.3122    0.4383    0.0000 C         1 <0>         0.0000
      7 O3         -2.3122    1.2633    0.0000 O         1 <0>         0.0000
      8 O4         -1.5978    0.0258    0.0000 OS        1 <0>         0.0000
      9 C5         -0.8833    0.4383    0.0000 CT        1 <0>         0.0000
     10 C6         -0.1296    0.1028    0.0000 CT        1 <0>         0.0000
     11 C7         -0.7427   -0.4493    0.0000 CT        1 <0>         0.0000
     12 C8         -0.7971    1.2588    0.0000 CT        1 <0>         0.0000
     13 C9          0.0099    1.4303    0.0000 CT        1 <0>         0.0000
     14 C10         0.4224    0.7159    0.0000 CT        1 <0>         0.0000
     15 C11         1.2294    0.5443    0.0000 CT        1 <0>         0.0000
     16 C12         1.4843   -0.2403    0.0000 CT        1 <0>         0.0000
     17 C13         0.9323   -0.8534    0.0000 CT        1 <0>         0.0000
     18 C14         0.1253   -0.6819    0.0000 CT        1 <0>         0.0000
     19 C15         1.7814    1.1574    0.0000 CT        1 <0>         0.0000
     20 C16         2.5884    0.9859    0.0000 CT        1 <0>         0.0000
     21 C17         2.8433    0.2013    0.0000 CA        1 <0>         0.0000
     22 C18         2.2913   -0.4118    0.0000 CA        1 <0>         0.0000
     23 C19         3.6503    0.0297    0.0000 CA        1 <0>         0.0000
     24 C20         3.9052   -0.7549    0.0000 CA        1 <0>         0.0000
     25 O5          4.7122   -0.9264    0.0000 OH        1 <0>         0.0000
     26 C21         3.3532   -1.3680    0.0000 CA        1 <0>         0.0000
     27 C22         2.5462   -1.1964    0.0000 CA        1 <0>         0.0000
     28 H1         -0.8527   -0.1448    0.0000 H1        1 <0>         0.0000
     29 H2          0.7656    1.1883    0.0000 HC        1 <0>         0.0000
     30 H3          1.0489    1.0997    0.0000 HC        1 <0>         0.0000
     31 H4          1.6648   -0.7956    0.0000 HC        1 <0>         0.0000
     32 H5         -4.4557   -0.7992    0.0000 HO        1 <0>         0.0000
     33 H6         -3.7412    0.4383    0.0000 HC        1 <0>         0.0000
     34 H7         -3.7412    0.4383    0.0000 HC        1 <0>         0.0000
     35 H8         -3.0267    0.0258    0.0000 HC        1 <0>         0.0000
     36 H9         -3.0267    0.0258    0.0000 HC        1 <0>         0.0000
     37 H10        -0.7427   -0.4493    0.0000 HC        1 <0>         0.0000
     38 H11        -0.7427   -0.4493    0.0000 HC        1 <0>         0.0000
     39 H12        -0.7427   -0.4493    0.0000 HC        1 <0>         0.0000
     40 H13        -0.7971    1.2588    0.0000 HC        1 <0>         0.0000
     41 H14        -0.7971    1.2588    0.0000 HC        1 <0>         0.0000
     42 H15         0.0099    1.4303    0.0000 HC        1 <0>         0.0000
     43 H16         0.0099    1.4303    0.0000 HC        1 <0>         0.0000
     44 H17         0.9323   -0.8534    0.0000 HC        1 <0>         0.0000
     45 H18         0.9323   -0.8534    0.0000 HC        1 <0>         0.0000
     46 H19         0.1253   -0.6819    0.0000 HC        1 <0>         0.0000
     47 H20         0.1253   -0.6819    0.0000 HC        1 <0>         0.0000
     48 H21         1.7814    1.1574    0.0000 HC        1 <0>         0.0000
     49 H22         1.7814    1.1574    0.0000 HC        1 <0>         0.0000
     50 H23         2.5884    0.9859    0.0000 HC        1 <0>         0.0000
     51 H24         2.5884    0.9859    0.0000 HC        1 <0>         0.0000
     52 H25         3.6503    0.0297    0.0000 HA        1 <0>         0.0000
     53 H26         4.7122   -0.9264    0.0000 HO        1 <0>         0.0000
     54 H27         3.3532   -1.3680    0.0000 HA        1 <0>         0.0000
     55 H28         2.5462   -1.1964    0.0000 HA        1 <0>         0.0000
@<TRIPOS>BOND
     1    1    2 2
     2    2    4 1
     3    2    3 1
     4    4    5 1
     5    5    6 1
     6    6    8 1
     7    6    7 2
     8    8    9 1
     9    9   10 1
    10    9   28 1
    11   10   14 1
    12   10   11 1
    13   10   18 1
    14    9   12 1
    15   12   13 1
    16   13   14 1
    17   14   15 1
    18   14   29 1
    19   15   19 1
    20   15   16 1
    21   15   30 1
    22   16   22 1
    23   16   31 1
    24   16   17 1
    25   17   18 1
    26   19   20 1
    27   20   21 1
    28   21   23 ar
    29   21   22 ar
    30   22   27 ar
    31   23   24 ar
    32   24   25 1
    33   24   26 ar
    34   26   27 ar
    35    3   32 1
    36    4   33 1
    37    4   34 1
    38    5   35 1
    39    5   36 1
    40   11   37 1
    41   11   38 1
    42   11   39 1
    43   12   40 1
    44   12   41 1
    45   13   42 1
    46   13   43 1
    47   17   44 1
    48   17   45 1
    49   18   46 1
    50   18   47 1
    51   19   48 1
    52   19   49 1
    53   20   50 1
    54   20   51 1
    55   23   52 1
    56   25   53 1
    57   26   54 1
    58   27   55 1
@<TRIPOS>MOLECULE
HHH
   20    20     0     0     0
SMALL
NO_CHARGES

@<TRIPOS>ATOM
      1 O1          1.4757    1.6226    0.0000 OH        1 <0>         0.0000
      2 C1          0.7613    1.2101    0.0000 C         1 <0>         0.0000
      3 O2          0.0468    1.6226    0.0000 O         1 <0>         0.0000
      4 C2          0.7613    0.3851    0.0000 CT        1 <0>         0.0000
      5 O3          1.4757   -0.0274    0.0000 OH        1 <0>         0.0000
      6 C3          0.0468   -0.0274    0.0000 CA        1 <0>         0.0000
      7 C4          0.0468   -0.8524    0.0000 CA        1 <0>         0.0000
      8 C5         -0.6677   -1.2649    0.0000 CA        1 <0>         0.0000
      9 C6         -0.6677    0.3851    0.0000 CA        1 <0>         0.0000
     10 C7         -1.3821   -0.0274    0.0000 CA        1 <0>         0.0000
     11 C8         -1.3821   -0.8524    0.0000 CA        1 <0>         0.0000
     12 O4         -2.0966   -1.2649    0.0000 OH        1 <0>         0.0000
     13 H1          1.2670    0.6771    0.0000 H1        1 <0>         0.0000
     14 H2          1.4757    1.6226    0.0000 HO        1 <0>         0.0000
     15 H3          1.4757   -0.0274    0.0000 HO        1 <0>         0.0000
     16 H4          0.0468   -0.8524    0.0000 HA        1 <0>         0.0000
     17 H5         -0.6677   -1.2649    0.0000 HA        1 <0>         0.0000
     18 H6         -0.6677    0.3851    0.0000 HA        1 <0>         0.0000
     19 H7         -1.3821   -0.0274    0.0000 HA        1 <0>         0.0000
     20 H8         -2.0966   -1.2649    0.0000 HO        1 <0>         0.0000
@<TRIPOS>BOND
     1    1    2 1
     2    2    4 1
     3    2    3 2
     4    4    5 1
     5    4    6 1
     6    4   13 1
     7    6    7 ar
     8    7    8 ar
     9    6    9 ar
    10    9   10 ar
    11   10   11 ar
    12    8   11 ar
    13   11   12 1
    14    1   14 1
    15    5   15 1
    16    7   16 1
    17    8   17 1
    18    9   18 1
    19   10   19 1
    20   12   20 1
@<TRIPOS>MOLECULE
HMY
   49    51     0     0     0
SMALL
NO_CHARGES

@<TRIPOS>ATOM
      1 O1          1.4683   -1.7236    0.0000 O         1 <0>         0.0000
      2 C1          0.8233   -1.2092    0.0000 C         1 <0>         0.0000
      3 O2          0.1783   -1.7236    0.0000 OS        1 <0>         0.0000
      4 C2         -0.6260   -1.9072    0.0000 CT        1 <0>         0.0000
      5 C3         -0.6260   -2.7322    0.0000 CT        1 <0>         0.0000
      6 C4         -1.4304   -1.7236    0.0000 CT        1 <0>         0.0000
      7 C5         -2.0754   -1.2092    0.0000 CM        1 <0>         0.0000
      8 C6         -2.4333   -0.4659    0.0000 CM        1 <0>         0.0000
      9 C7          1.1812   -0.4659    0.0000 CA        1 <0>         0.0000
     10 C8          1.8957   -0.8784    0.0000 CA        1 <0>         0.0000
     11 O3          1.8957   -1.7034    0.0000 OH        1 <0>         0.0000
     12 C9          2.6102   -0.4659    0.0000 CA        1 <0>         0.0000
     13 C10         2.6102    0.3591    0.0000 CA        1 <0>         0.0000
     14 O4          3.3246    0.7716    0.0000 OS        1 <0>         0.0000
     15 C11         3.3246    1.5966    0.0000 CT        1 <0>         0.0000
     16 C12         1.8957    0.7716    0.0000 CA        1 <0>         0.0000
     17 C13         1.1812    0.3591    0.0000 CA        1 <0>         0.0000
     18 C14         0.8233    1.1024    0.0000 CJ        1 <0>         0.0000
     19 O5          0.9462    1.9182    0.0000 OS        1 <0>         0.0000
     20 C15         0.1783    1.6167    0.0000 CJ        1 <0>         0.0000
     21 C16        -0.6260    1.8003    0.0000 CT        1 <0>         0.0000
     22 C17        -1.4304    1.6167    0.0000 CT        1 <0>         0.0000
     23 O6         -1.7883    2.3600    0.0000 OH        1 <0>         0.0000
     24 C18        -2.0754    1.1024    0.0000 CT        1 <0>         0.0000
     25 O7         -2.7204    1.6167    0.0000 OH        1 <0>         0.0000
     26 C19        -2.4333    0.3591    0.0000 C         1 <0>         0.0000
     27 O8         -3.2376    0.5426    0.0000 O         1 <0>         0.0000
     28 H1         -0.1695   -2.2713    0.0000 H1        1 <0>         0.0000
     29 H2          1.4007    1.1894    0.0000 H1        1 <0>         0.0000
     30 H3          0.1346    2.1990    0.0000 H1        1 <0>         0.0000
     31 H4         -1.1770    2.1428    0.0000 H1        1 <0>         0.0000
     32 H5         -2.0754    1.6863    0.0000 H1        1 <0>         0.0000
     33 H6         -0.6260   -2.7322    0.0000 HC        1 <0>         0.0000
     34 H7         -0.6260   -2.7322    0.0000 HC        1 <0>         0.0000
     35 H8         -0.6260   -2.7322    0.0000 HC        1 <0>         0.0000
     36 H9         -1.4304   -1.7236    0.0000 HC        1 <0>         0.0000
     37 H10        -1.4304   -1.7236    0.0000 HC        1 <0>         0.0000
     38 H11        -2.0754   -1.2092    0.0000 HA        1 <0>         0.0000
     39 H12        -2.4333   -0.4659    0.0000 HA        1 <0>         0.0000
     40 H13         1.8957   -1.7034    0.0000 HO        1 <0>         0.0000
     41 H14         2.6102   -0.4659    0.0000 HA        1 <0>         0.0000
     42 H15         3.3246    1.5966    0.0000 H1        1 <0>         0.0000
     43 H16         3.3246    1.5966    0.0000 H1        1 <0>         0.0000
     44 H17         3.3246    1.5966    0.0000 H1        1 <0>         0.0000
     45 H18         1.8957    0.7716    0.0000 HA        1 <0>         0.0000
     46 H19        -0.6260    1.8003    0.0000 HC        1 <0>         0.0000
     47 H20        -0.6260    1.8003    0.0000 HC        1 <0>         0.0000
     48 H21        -1.7883    2.3600    0.0000 HO        1 <0>         0.0000
     49 H22        -2.7204    1.6167    0.0000 HO        1 <0>         0.0000
@<TRIPOS>BOND
     1    1    2 2
     2    2    3 1
     3    2    9 1
     4    3    4 1
     5    4    5 1
     6    4    6 1
     7    4   28 1
     8    6    7 1
     9    7    8 2
    10    8   26 1
    11    9   10 ar
    12    9   17 ar
    13   10   11 1
    14   10   12 ar
    15   12   13 ar
    16   13   14 1
    17   13   16 ar
    18   14   15 1
    19   16   17 ar
    20   17   18 1
    21   18   19 1
    22   18   20 1
    23   18   29 1
    24   19   20 1
    25   20   21 1
    26   20   30 1
    27   21   22 1
    28   22   23 1
    29   22   24 1
    30   22   31 1
    31   24   25 1
    32   24   26 1
    33   24   32 1
    34   26   27 2
    35    5   33 1
    36    5   34 1
    37    5   35 1
    38    6   36 1
    39    6   37 1
    40    7   38 1
    41    8   39 1
    42   11   40 1
    43   12   41 1
    44   15   42 1
    45   15   43 1
    46   15   44 1
    47   16   45 1
    48   21   46 1
    49   21   47 1
    50   23   48 1
    51   25   49 1
@<TRIPOS>MOLECULE
HOC
   27    26     0     0     0
SMALL
NO_CHARGES

@<TRIPOS>ATOM
      1 C1         -2.0779    0.1218    0.0000 CT        1 <0>         0.0000
      2 C2         -1.3634   -0.2907    0.0000 CT        1 <0>         0.0000
      3 O1          2.2093    0.9469    0.0000 OH        1 <0>         0.0000
      4 C3          2.9238   -0.2907    0.0000 C         1 <0>         0.0000
      5 C4          2.2093    0.1218    0.0000 CT        1 <0>         0.0000
      6 C5          1.4947   -0.2907    0.0000 CT        1 <0>         0.0000
      7 C6          0.7802    0.1218    0.0000 CT        1 <0>         0.0000
      8 C7          0.0657   -0.2907    0.0000 CT        1 <0>         0.0000
      9 C8         -0.6488    0.1218    0.0000 CT        1 <0>         0.0000
     10 O2          3.6383    0.1218    0.0000 OH        1 <0>         0.0000
     11 O3          2.9238   -1.1158    0.0000 O         1 <0>         0.0000
     12 H1          2.7150    0.4137    0.0000 H1        1 <0>         0.0000
     13 H2         -2.0779    0.1218    0.0000 HC        1 <0>         0.0000
     14 H3         -2.0779    0.1218    0.0000 HC        1 <0>         0.0000
     15 H4         -2.0779    0.1218    0.0000 HC        1 <0>         0.0000
     16 H5         -1.3634   -0.2907    0.0000 HC        1 <0>         0.0000
     17 H6         -1.3634   -0.2907    0.0000 HC        1 <0>         0.0000
     18 H7          2.2093    0.9469    0.0000 HO        1 <0>         0.0000
     19 H8          1.4947   -0.2907    0.0000 HC        1 <0>         0.0000
     20 H9          1.4947   -0.2907    0.0000 HC        1 <0>         0.0000
     21 H10         0.7802    0.1218    0.0000 HC        1 <0>         0.0000
     22 H11         0.7802    0.1218    0.0000 HC        1 <0>         0.0000
     23 H12         0.0657   -0.2907    0.0000 HC        1 <0>         0.0000
     24 H13         0.0657   -0.2907    0.0000 HC        1 <0>         0.0000
     25 H14        -0.6488    0.1218    0.0000 HC        1 <0>         0.0000
     26 H15        -0.6488    0.1218    0.0000 HC        1 <0>         0.0000
     27 H16         3.6383    0.1218    0.0000 HO        1 <0>         0.0000
@<TRIPOS>BOND
     1    1    2 1
     2    2    9 1
     3    3    5 1
     4    4    5 1
     5    4   10 1
     6    4   11 2
     7    5    6 1
     8    5   12 1
     9    6    7 1
    10    7    8 1
    11    8    9 1
    12    1   13 1
    13    1   14 1
    14    1   15 1
    15    2   16 1
    16    2   17 1
    17    3   18 1
    18    6   19 1
    19    6   20 1
    20    7   21 1
    21    7   22 1
    22    8   23 1
    23    8   24 1
    24    9   25 1
    25    9   26 1
    26   10   27 1
@<TRIPOS>MOLECULE
HOM
   28    29     0     0     0
SMALL
NO_CHARGES

@<TRIPOS>ATOM
      1 C1         -0.4969   -0.0587    0.0000 CA        1 <0>         0.0000
      2 C2         -0.4969    0.7663    0.0000 C         1 <0>         0.0000
      3 C3          0.9320    0.7663    0.0000 CB        1 <0>         0.0000
      4 C4          1.6465    1.1788    0.0000 CA        1 <0>         0.0000
      5 C5          2.3610    0.7663    0.0000 CA        1 <0>         0.0000
      6 C6          2.3610   -0.0587    0.0000 CA        1 <0>         0.0000
      7 C7          1.6465   -0.4712    0.0000 CA        1 <0>         0.0000
      8 C8          0.9320   -0.0587    0.0000 CB        1 <0>         0.0000
      9 C9          0.2176   -0.4712    0.0000 CA        1 <0>         0.0000
     10 C10        -1.2114   -0.4712    0.0000 CT        1 <0>         0.0000
     11 C11        -1.9259   -0.0587    0.0000 CT        1 <0>         0.0000
     12 C12         0.2176   -1.2962    0.0000 CT        1 <0>         0.0000
     13 O1         -1.2114    1.1788    0.0000 O         1 <0>         0.0000
     14 O2          0.2176    1.1788    0.0000 OS        1 <0>         0.0000
     15 O3          3.0754    1.1788    0.0000 OH        1 <0>         0.0000
     16 O4         -2.6403   -0.4712    0.0000 OH        1 <0>         0.0000
     17 H1          1.6465    1.1788    0.0000 HA        1 <0>         0.0000
     18 H2          2.3610   -0.0587    0.0000 HA        1 <0>         0.0000
     19 H3          1.6465   -0.4712    0.0000 HA        1 <0>         0.0000
     20 H4         -1.2114   -0.4712    0.0000 HC        1 <0>         0.0000
     21 H5         -1.2114   -0.4712    0.0000 HC        1 <0>         0.0000
     22 H6         -1.9259   -0.0587    0.0000 H1        1 <0>         0.0000
     23 H7         -1.9259   -0.0587    0.0000 H1        1 <0>         0.0000
     24 H8          0.2176   -1.2962    0.0000 HC        1 <0>         0.0000
     25 H9          0.2176   -1.2962    0.0000 HC        1 <0>         0.0000
     26 H10         0.2176   -1.2962    0.0000 HC        1 <0>         0.0000
     27 H11         3.0754    1.1788    0.0000 HO        1 <0>         0.0000
     28 H12        -2.6403   -0.4712    0.0000 HO        1 <0>         0.0000
@<TRIPOS>BOND
     1    1    2 1
     2    1    9 2
     3    1   10 1
     4    2   13 2
     5    2   14 1
     6    3    4 ar
     7    3    8 ar
     8    3   14 1
     9    4    5 ar
    10    5    6 ar
    11    5   15 1
    12    6    7 ar
    13    7    8 ar
    14    8    9 1
    15    9   12 1
    16   10   11 1
    17   11   16 1
    18    4   17 1
    19    6   18 1
    20    7   19 1
    21   10   20 1
    22   10   21 1
    23   11   22 1
    24   11   23 1
    25   12   24 1
    26   12   25 1
    27   12   26 1
    28   15   27 1
    29   16   28 1
@<TRIPOS>MOLECULE
HPK
   25    25     0     0     0
SMALL
NO_CHARGES

@<TRIPOS>ATOM
      1 C1          1.8449    2.0474    0.0000 CA        1 <0>         0.0000
      2 C2          1.1304    2.4599    0.0000 CA        1 <0>         0.0000
      3 C3          0.4160    2.0474    0.0000 CA        1 <0>         0.0000
      4 C4          0.4160    1.2224    0.0000 CA        1 <0>         0.0000
      5 C5          1.1304    0.8099    0.0000 CA        1 <0>         0.0000
      6 C6          1.8449    1.2224    0.0000 CA        1 <0>         0.0000
      7 C7          1.1304   -0.0151    0.0000 C         1 <0>         0.0000
      8 O1          1.8449   -0.4276    0.0000 O         1 <0>         0.0000
      9 C8          0.4160   -0.4276    0.0000 CT        1 <0>         0.0000
     10 C9          0.4160   -1.2526    0.0000 CM        1 <0>         0.0000
     11 C10        -0.2985   -1.6651    0.0000 CM        1 <0>         0.0000
     12 C11        -0.2985   -2.4901    0.0000 C         1 <0>         0.0000
     13 O2          0.4160   -2.9026    0.0000 O         1 <0>         0.0000
     14 C12        -1.0130   -2.9026    0.0000 C         1 <0>         0.0000
     15 O3         -1.0130   -3.7276    0.0000 O2        1 <0>         0.0000
     16 O4         -1.7274   -2.4901    0.0000 O2        1 <0>         0.0000
     17 H1          1.8449    2.0474    0.0000 HA        1 <0>         0.0000
     18 H2          1.1304    2.4599    0.0000 HA        1 <0>         0.0000
     19 H3          0.4160    2.0474    0.0000 HA        1 <0>         0.0000
     20 H4          0.4160    1.2224    0.0000 HA        1 <0>         0.0000
     21 H5          1.8449    1.2224    0.0000 HA        1 <0>         0.0000
     22 H6          0.4160   -0.4276    0.0000 HC        1 <0>         0.0000
     23 H7          0.4160   -0.4276    0.0000 HC        1 <0>         0.0000
     24 H8          0.4160   -1.2526    0.0000 HA        1 <0>         0.0000
     25 H9         -0.2985   -1.6651    0.0000 HA        1 <0>         0.0000
@<TRIPOS>BOND
     1    1    6 ar
     2    1    2 ar
     3    2    3 ar
     4    3    4 ar
     5    4    5 ar
     6    5    7 1
     7    5    6 ar
     8    7    8 2
     9    7    9 1
    10    9   10 1
    11   10   11 2
    12   11   12 1
    13   12   14 1
    14   12   13 2
    15   14   16 2
    16   14   15 1
    17    1   17 1
    18    2   18 1
    19    3   19 1
    20    4   20 1
    21    6   21 1
    22    9   22 1
    23    9   23 1
    24   10   24 1
    25   11   25 1
@<TRIPOS>MOLECULE
HPX
   26    26     0     0     0
SMALL
NO_CHARGES

@<TRIPOS>ATOM
      1 C1          1.8611   -1.0803    0.0000 CA        1 <0>         0.0000
      2 C2          1.8611   -1.9053    0.0000 CA        1 <0>         0.0000
      3 C3          1.1466   -2.3178    0.0000 CA        1 <0>         0.0000
      4 C4          0.4321   -1.9053    0.0000 CA        1 <0>         0.0000
      5 C5          0.4321   -1.0803    0.0000 CA        1 <0>         0.0000
      6 C6          1.1466   -0.6678    0.0000 CA        1 <0>         0.0000
      7 C7         -0.2823   -0.6678    0.0000 C         1 <0>         0.0000
      8 O1         -0.9968   -1.0803    0.0000 O         1 <0>         0.0000
      9 C8         -0.2823    0.1572    0.0000 CM        1 <0>         0.0000
     10 C9         -0.9968    0.5697    0.0000 CM        1 <0>         0.0000
     11 C10        -0.9968    1.3947    0.0000 CM        1 <0>         0.0000
     12 C11        -1.7113    1.8072    0.0000 CM        1 <0>         0.0000
     13 O2         -1.7113    2.6322    0.0000 OH        1 <0>         0.0000
     14 C12        -2.4257    1.3947    0.0000 C         1 <0>         0.0000
     15 O3         -2.4257    0.5697    0.0000 OH        1 <0>         0.0000
     16 O4         -3.1402    1.8072    0.0000 O         1 <0>         0.0000
     17 H1          1.8611   -1.0803    0.0000 HA        1 <0>         0.0000
     18 H2          1.8611   -1.9053    0.0000 HA        1 <0>         0.0000
     19 H3          1.1466   -2.3178    0.0000 HA        1 <0>         0.0000
     20 H4          0.4321   -1.9053    0.0000 HA        1 <0>         0.0000
     21 H5          1.1466   -0.6678    0.0000 HA        1 <0>         0.0000
     22 H6         -0.2823    0.1572    0.0000 HA        1 <0>         0.0000
     23 H7         -0.9968    0.5697    0.0000 HA        1 <0>         0.0000
     24 H8         -0.9968    1.3947    0.0000 HA        1 <0>         0.0000
     25 H9         -1.7113    2.6322    0.0000 HO        1 <0>         0.0000
     26 H10        -2.4257    0.5697    0.0000 HO        1 <0>         0.0000
@<TRIPOS>BOND
     1    1    2 ar
     2    1    6 ar
     3    2    3 ar
     4    3    4 ar
     5    4    5 ar
     6    5    6 ar
     7    5    7 1
     8    7    8 2
     9    7    9 1
    10    9   10 2
    11   10   11 1
    12   11   12 2
    13   12   13 1
    14   12   14 1
    15   14   15 1
    16   14   16 2
    17    1   17 1
    18    2   18 1
    19    3   19 1
    20    4   20 1
    21    6   21 1
    22    9   22 1
    23   10   23 1
    24   11   24 1
    25   13   25 1
    26   15   26 1
@<TRIPOS>MOLECULE
HSG
   48    48     0     0     0
SMALL
NO_CHARGES

@<TRIPOS>ATOM
      1 C1         -4.2759    0.5143    0.0000 CT        1 <0>         0.0000
      2 C2         -3.5614    0.1018    0.0000 CT        1 <0>         0.0000
      3 C3         -2.8469    0.5143    0.0000 CT        1 <0>         0.0000
      4 C4         -2.1325    0.1018    0.0000 CT        1 <0>         0.0000
      5 C5         -1.4180    0.5143    0.0000 CT        1 <0>         0.0000
      6 C6         -0.7035    0.1018    0.0000 CT        1 <0>         0.0000
      7 C7          0.0110    0.5143    0.0000 CT        1 <0>         0.0000
      8 C8          0.7254    0.1018    0.0000 CT        1 <0>         0.0000
      9 O1          1.4399    0.5143    0.0000 OS        1 <0>         0.0000
     10 C9          2.1544    0.1018    0.0000 CT        1 <0>         0.0000
     11 O2          2.8688    0.5143    0.0000 OS        1 <0>         0.0000
     12 C10         3.5833    0.1018    0.0000 CT        1 <0>         0.0000
     13 C11         4.2978    0.5143    0.0000 CT        1 <0>         0.0000
     14 O3          4.2978    1.3393    0.0000 OH        1 <0>         0.0000
     15 C12         3.5833   -0.7232    0.0000 CT        1 <0>         0.0000
     16 O4          4.2978   -1.1357    0.0000 OH        1 <0>         0.0000
     17 C13         2.8688   -1.1357    0.0000 CT        1 <0>         0.0000
     18 O5          2.8688   -1.9607    0.0000 OH        1 <0>         0.0000
     19 C14         2.1544   -0.7232    0.0000 CT        1 <0>         0.0000
     20 O6          1.4399   -1.1357    0.0000 OH        1 <0>         0.0000
     21 H1          2.1544    0.6858    0.0000 H2        1 <0>         0.0000
     22 H2          3.5833    0.6858    0.0000 H1        1 <0>         0.0000
     23 H3          4.0890   -0.4312    0.0000 H1        1 <0>         0.0000
     24 H4          3.3745   -1.4276    0.0000 H1        1 <0>         0.0000
     25 H5          1.6487   -0.4312    0.0000 H1        1 <0>         0.0000
     26 H6         -4.2759    0.5143    0.0000 HC        1 <0>         0.0000
     27 H7         -4.2759    0.5143    0.0000 HC        1 <0>         0.0000
     28 H8         -4.2759    0.5143    0.0000 HC        1 <0>         0.0000
     29 H9         -3.5614    0.1018    0.0000 HC        1 <0>         0.0000
     30 H10        -3.5614    0.1018    0.0000 HC        1 <0>         0.0000
     31 H11        -2.8469    0.5143    0.0000 HC        1 <0>         0.0000
     32 H12        -2.8469    0.5143    0.0000 HC        1 <0>         0.0000
     33 H13        -2.1325    0.1018    0.0000 HC        1 <0>         0.0000
     34 H14        -2.1325    0.1018    0.0000 HC        1 <0>         0.0000
     35 H15        -1.4180    0.5143    0.0000 HC        1 <0>         0.0000
     36 H16        -1.4180    0.5143    0.0000 HC        1 <0>         0.0000
     37 H17        -0.7035    0.1018    0.0000 HC        1 <0>         0.0000
     38 H18        -0.7035    0.1018    0.0000 HC        1 <0>         0.0000
     39 H19         0.0110    0.5143    0.0000 HC        1 <0>         0.0000
     40 H20         0.0110    0.5143    0.0000 HC        1 <0>         0.0000
     41 H21         0.7254    0.1018    0.0000 H1        1 <0>         0.0000
     42 H22         0.7254    0.1018    0.0000 H1        1 <0>         0.0000
     43 H23         4.2978    0.5143    0.0000 H1        1 <0>         0.0000
     44 H24         4.2978    0.5143    0.0000 H1        1 <0>         0.0000
     45 H25         4.2978    1.3393    0.0000 HO        1 <0>         0.0000
     46 H26         4.2978   -1.1357    0.0000 HO        1 <0>         0.0000
     47 H27         2.8688   -1.9607    0.0000 HO        1 <0>         0.0000
     48 H28         1.4399   -1.1357    0.0000 HO        1 <0>         0.0000
@<TRIPOS>BOND
     1    1    2 1
     2    2    3 1
     3    3    4 1
     4    4    5 1
     5    5    6 1
     6    6    7 1
     7    7    8 1
     8    8    9 1
     9    9   10 1
    10   10   11 1
    11   10   19 1
    12   10   21 1
    13   11   12 1
    14   12   13 1
    15   12   15 1
    16   12   22 1
    17   13   14 1
    18   15   16 1
    19   15   17 1
    20   15   23 1
    21   17   18 1
    22   17   19 1
    23   17   24 1
    24   19   20 1
    25   19   25 1
    26    1   26 1
    27    1   27 1
    28    1   28 1
    29    2   29 1
    30    2   30 1
    31    3   31 1
    32    3   32 1
    33    4   33 1
    34    4   34 1
    35    5   35 1
    36    5   36 1
    37    6   37 1
    38    6   38 1
    39    7   39 1
    40    7   40 1
    41    8   41 1
    42    8   42 1
    43   13   43 1
    44   13   44 1
    45   14   45 1
    46   16   46 1
    47   18   47 1
    48   20   48 1
@<TRIPOS>MOLECULE
HSH
   48    48     0     0     0
SMALL
NO_CHARGES

@<TRIPOS>ATOM
      1 C1         -4.2373    0.5454    0.0000 CT        1 <0>         0.0000
      2 C2         -3.5228    0.1329    0.0000 CT        1 <0>         0.0000
      3 C3         -2.8083    0.5454    0.0000 CT        1 <0>         0.0000
      4 C4         -2.0939    0.1329    0.0000 CT        1 <0>         0.0000
      5 C5         -1.3794    0.5454    0.0000 CT        1 <0>         0.0000
      6 C6         -0.6649    0.1329    0.0000 CT        1 <0>         0.0000
      7 C7          0.0495    0.5454    0.0000 CT        1 <0>         0.0000
      8 C8          0.7640    0.1329    0.0000 CT        1 <0>         0.0000
      9 O1          1.4785    0.5454    0.0000 OS        1 <0>         0.0000
     10 C9          2.1930    0.1329    0.0000 CT        1 <0>         0.0000
     11 O2          2.9074    0.5454    0.0000 OS        1 <0>         0.0000
     12 C10         3.6219    0.1329    0.0000 CT        1 <0>         0.0000
     13 C11         4.3364    0.5454    0.0000 CT        1 <0>         0.0000
     14 O3          4.3364    1.3704    0.0000 OH        1 <0>         0.0000
     15 C12         3.6219   -0.6921    0.0000 CT        1 <0>         0.0000
     16 O4          4.3364   -1.1046    0.0000 OH        1 <0>         0.0000
     17 C13         2.9074   -1.1046    0.0000 CT        1 <0>         0.0000
     18 O5          2.9074   -1.9296    0.0000 OH        1 <0>         0.0000
     19 C14         2.1930   -0.6921    0.0000 CT        1 <0>         0.0000
     20 O6          1.4785   -1.1046    0.0000 OH        1 <0>         0.0000
     21 H1          2.1930    0.7169    0.0000 H2        1 <0>         0.0000
     22 H2          3.6219    0.7169    0.0000 H1        1 <0>         0.0000
     23 H3          4.1276   -0.4001    0.0000 H1        1 <0>         0.0000
     24 H4          3.4131   -1.3965    0.0000 H1        1 <0>         0.0000
     25 H5          1.6873   -0.4001    0.0000 H1        1 <0>         0.0000
     26 H6         -4.2373    0.5454    0.0000 HC        1 <0>         0.0000
     27 H7         -4.2373    0.5454    0.0000 HC        1 <0>         0.0000
     28 H8         -4.2373    0.5454    0.0000 HC        1 <0>         0.0000
     29 H9         -3.5228    0.1329    0.0000 HC        1 <0>         0.0000
     30 H10        -3.5228    0.1329    0.0000 HC        1 <0>         0.0000
     31 H11        -2.8083    0.5454    0.0000 HC        1 <0>         0.0000
     32 H12        -2.8083    0.5454    0.0000 HC        1 <0>         0.0000
     33 H13        -2.0939    0.1329    0.0000 HC        1 <0>         0.0000
     34 H14        -2.0939    0.1329    0.0000 HC        1 <0>         0.0000
     35 H15        -1.3794    0.5454    0.0000 HC        1 <0>         0.0000
     36 H16        -1.3794    0.5454    0.0000 HC        1 <0>         0.0000
     37 H17        -0.6649    0.1329    0.0000 HC        1 <0>         0.0000
     38 H18        -0.6649    0.1329    0.0000 HC        1 <0>         0.0000
     39 H19         0.0495    0.5454    0.0000 HC        1 <0>         0.0000
     40 H20         0.0495    0.5454    0.0000 HC        1 <0>         0.0000
     41 H21         0.7640    0.1329    0.0000 H1        1 <0>         0.0000
     42 H22         0.7640    0.1329    0.0000 H1        1 <0>         0.0000
     43 H23         4.3364    0.5454    0.0000 H1        1 <0>         0.0000
     44 H24         4.3364    0.5454    0.0000 H1        1 <0>         0.0000
     45 H25         4.3364    1.3704    0.0000 HO        1 <0>         0.0000
     46 H26         4.3364   -1.1046    0.0000 HO        1 <0>         0.0000
     47 H27         2.9074   -1.9296    0.0000 HO        1 <0>         0.0000
     48 H28         1.4785   -1.1046    0.0000 HO        1 <0>         0.0000
@<TRIPOS>BOND
     1    1    2 1
     2    2    3 1
     3    3    4 1
     4    4    5 1
     5    5    6 1
     6    6    7 1
     7    7    8 1
     8    8    9 1
     9    9   10 1
    10   10   11 1
    11   10   19 1
    12   10   21 1
    13   11   12 1
    14   12   13 1
    15   12   15 1
    16   12   22 1
    17   13   14 1
    18   15   16 1
    19   15   17 1
    20   15   23 1
    21   17   18 1
    22   17   19 1
    23   17   24 1
    24   19   20 1
    25   19   25 1
    26    1   26 1
    27    1   27 1
    28    1   28 1
    29    2   29 1
    30    2   30 1
    31    3   31 1
    32    3   32 1
    33    4   33 1
    34    4   34 1
    35    5   35 1
    36    5   36 1
    37    6   37 1
    38    6   38 1
    39    7   39 1
    40    7   40 1
    41    8   41 1
    42    8   42 1
    43   13   43 1
    44   13   44 1
    45   14   45 1
    46   16   46 1
    47   18   47 1
    48   20   48 1
@<TRIPOS>MOLECULE
*****
   39    38     0     0     0
SMALL
NO_CHARGES

@<TRIPOS>ATOM
      1 C1          9.2913   -6.3422    0.0000 CT        1 <0>         0.0000
      2 C2         10.0057   -6.7547    0.0000 CT        1 <0>         0.0000
      3 C3         10.7202   -6.3422    0.0000 CT        1 <0>         0.0000
      4 C4         11.4347   -6.7547    0.0000 CT        1 <0>         0.0000
      5 C5         12.1491   -6.3422    0.0000 CT        1 <0>         0.0000
      6 C6         12.8636   -6.7547    0.0000 CT        1 <0>         0.0000
      7 C7         13.5781   -6.3422    0.0000 CT        1 <0>         0.0000
      8 C8         14.2926   -6.7547    0.0000 CT        1 <0>         0.0000
      9 C9         15.0071   -6.3422    0.0000 C         1 <0>         0.0000
     10 O1         15.7215   -6.7547    0.0000 O         1 <0>         0.0000
     11 O2         15.0071   -5.5172    0.0000 OH        1 <0>         0.0000
     12 C10         8.5768   -6.7547    0.0000 CT        1 <0>         0.0000
     13 C11         7.8623   -6.3422    0.0000 CT        1 <0>         0.0000
     14 C12         7.1478   -6.7547    0.0000 CT        1 <0>         0.0000
     15 O3         12.9209   -5.6151    0.0000 OH        1 <0>         0.0000
     16 H1         14.1649   -5.5653    0.0000 H1        1 <0>         0.0000
     17 H2          9.2913   -6.3422    0.0000 HC        1 <0>         0.0000
     18 H3          9.2913   -6.3422    0.0000 HC        1 <0>         0.0000
     19 H4         10.0057   -6.7547    0.0000 HC        1 <0>         0.0000
     20 H5         10.0057   -6.7547    0.0000 HC        1 <0>         0.0000
     21 H6         10.7202   -6.3422    0.0000 HC        1 <0>         0.0000
     22 H7         10.7202   -6.3422    0.0000 HC        1 <0>         0.0000
     23 H8         11.4347   -6.7547    0.0000 HC        1 <0>         0.0000
     24 H9         11.4347   -6.7547    0.0000 HC        1 <0>         0.0000
     25 H10        12.1491   -6.3422    0.0000 HC        1 <0>         0.0000
     26 H11        12.1491   -6.3422    0.0000 HC        1 <0>         0.0000
     27 H12        12.8636   -6.7547    0.0000 HC        1 <0>         0.0000
     28 H13        12.8636   -6.7547    0.0000 HC        1 <0>         0.0000
     29 H14        14.2926   -6.7547    0.0000 HC        1 <0>         0.0000
     30 H15        14.2926   -6.7547    0.0000 HC        1 <0>         0.0000
     31 H16        15.0071   -5.5172    0.0000 HO        1 <0>         0.0000
     32 H17         8.5768   -6.7547    0.0000 HC        1 <0>         0.0000
     33 H18         8.5768   -6.7547    0.0000 HC        1 <0>         0.0000
     34 H19         7.8623   -6.3422    0.0000 HC        1 <0>         0.0000
     35 H20         7.8623   -6.3422    0.0000 HC        1 <0>         0.0000
     36 H21         7.1478   -6.7547    0.0000 HC        1 <0>         0.0000
     37 H22         7.1478   -6.7547    0.0000 HC        1 <0>         0.0000
     38 H23         7.1478   -6.7547    0.0000 HC        1 <0>         0.0000
     39 H24        12.9209   -5.6151    0.0000 HO        1 <0>         0.0000
@<TRIPOS>BOND
     1    1    2 1
     2    2    3 1
     3    3    4 1
     4    4    5 1
     5    5    6 1
     6    6    7 1
     7    7    8 1
     8    8    9 1
     9    9   10 2
    10    9   11 1
    11    1   12 1
    12   12   13 1
    13   13   14 1
    14    7   15 1
    15    7   16 1
    16    1   17 1
    17    1   18 1
    18    2   19 1
    19    2   20 1
    20    3   21 1
    21    3   22 1
    22    4   23 1
    23    4   24 1
    24    5   25 1
    25    5   26 1
    26    6   27 1
    27    6   28 1
    28    8   29 1
    29    8   30 1
    30   11   31 1
    31   12   32 1
    32   12   33 1
    33   13   34 1
    34   13   35 1
    35   14   36 1
    36   14   37 1
    37   14   38 1
    38   15   39 1
@<TRIPOS>MOLECULE
HXS
   42    43     0     0     0
SMALL
NO_CHARGES

@<TRIPOS>ATOM
      1 C1         -1.0595    2.2472    0.0000 CA        1 <0>         0.0000
      2 C2         -0.3450    2.6597    0.0000 CA        1 <0>         0.0000
      3 C3          0.3695    2.2472    0.0000 CA        1 <0>         0.0000
      4 C4          0.3695    1.4222    0.0000 CA        1 <0>         0.0000
      5 C5         -0.3450    1.0097    0.0000 CA        1 <0>         0.0000
      6 O1         -0.3450    3.4847    0.0000 OH        1 <0>         0.0000
      7 C6         -1.0595    1.4222    0.0000 CA        1 <0>         0.0000
      8 C7         -0.3450    0.1847    0.0000 CT        1 <0>         0.0000
      9 C8         -1.0595   -0.2278    0.0000 CT        1 <0>         0.0000
     10 C9         -1.7739    0.1847    0.0000 CT        1 <0>         0.0000
     11 C10         0.3695   -0.2278    0.0000 CT        1 <0>         0.0000
     12 C11         1.0840    0.1847    0.0000 CT        1 <0>         0.0000
     13 C12         1.7984   -0.2278    0.0000 CT        1 <0>         0.0000
     14 C13         0.3695   -1.0528    0.0000 CA        1 <0>         0.0000
     15 C14         1.0840   -1.4653    0.0000 CA        1 <0>         0.0000
     16 C15         1.0840   -2.2903    0.0000 CA        1 <0>         0.0000
     17 C16         0.3695   -2.7028    0.0000 CA        1 <0>         0.0000
     18 O2          0.3695   -3.5278    0.0000 OH        1 <0>         0.0000
     19 C17        -0.3450   -2.2903    0.0000 CA        1 <0>         0.0000
     20 C18        -0.3450   -1.4653    0.0000 CA        1 <0>         0.0000
     21 H1         -0.8507    0.4767    0.0000 HC        1 <0>         0.0000
     22 H2          0.3695    0.3562    0.0000 HC        1 <0>         0.0000
     23 H3         -1.0595    2.2472    0.0000 HA        1 <0>         0.0000
     24 H4          0.3695    2.2472    0.0000 HA        1 <0>         0.0000
     25 H5          0.3695    1.4222    0.0000 HA        1 <0>         0.0000
     26 H6         -0.3450    3.4847    0.0000 HO        1 <0>         0.0000
     27 H7         -1.0595    1.4222    0.0000 HA        1 <0>         0.0000
     28 H8         -1.0595   -0.2278    0.0000 HC        1 <0>         0.0000
     29 H9         -1.0595   -0.2278    0.0000 HC        1 <0>         0.0000
     30 H10        -1.7739    0.1847    0.0000 HC        1 <0>         0.0000
     31 H11        -1.7739    0.1847    0.0000 HC        1 <0>         0.0000
     32 H12        -1.7739    0.1847    0.0000 HC        1 <0>         0.0000
     33 H13         1.0840    0.1847    0.0000 HC        1 <0>         0.0000
     34 H14         1.0840    0.1847    0.0000 HC        1 <0>         0.0000
     35 H15         1.7984   -0.2278    0.0000 HC        1 <0>         0.0000
     36 H16         1.7984   -0.2278    0.0000 HC        1 <0>         0.0000
     37 H17         1.7984   -0.2278    0.0000 HC        1 <0>         0.0000
     38 H18         1.0840   -1.4653    0.0000 HA        1 <0>         0.0000
     39 H19         1.0840   -2.2903    0.0000 HA        1 <0>         0.0000
     40 H20         0.3695   -3.5278    0.0000 HO        1 <0>         0.0000
     41 H21        -0.3450   -2.2903    0.0000 HA        1 <0>         0.0000
     42 H22        -0.3450   -1.4653    0.0000 HA        1 <0>         0.0000
@<TRIPOS>BOND
     1    1    2 ar
     2    1    7 ar
     3    2    3 ar
     4    2    6 1
     5    3    4 ar
     6    4    5 ar
     7    5    7 ar
     8    5    8 1
     9    8    9 1
    10    8   11 1
    11    8   21 1
    12    9   10 1
    13   11   12 1
    14   11   14 1
    15   11   22 1
    16   12   13 1
    17   14   15 ar
    18   14   20 ar
    19   15   16 ar
    20   16   17 ar
    21   17   18 1
    22   17   19 ar
    23   19   20 ar
    24    1   23 1
    25    3   24 1
    26    4   25 1
    27    6   26 1
    28    7   27 1
    29    9   28 1
    30    9   29 1
    31   10   30 1
    32   10   31 1
    33   10   32 1
    34   12   33 1
    35   12   34 1
    36   13   35 1
    37   13   36 1
    38   13   37 1
    39   15   38 1
    40   16   39 1
    41   18   40 1
    42   19   41 1
    43   20   42 1
@<TRIPOS>MOLECULE
HZ3
   47    50     0     0     0
SMALL
NO_CHARGES

@<TRIPOS>ATOM
      1 C1         -1.3672    0.6789    0.0000 CA        1 <0>         0.0000
      2 C2         -1.9811    1.2300    0.0000 CA        1 <0>         0.0000
      3 C3         -1.8107    2.0372    0.0000 CA        1 <0>         0.0000
      4 O1         -2.4246    2.5884    0.0000 OH        1 <0>         0.0000
      5 C4         -1.0265    2.2933    0.0000 CA        1 <0>         0.0000
      6 C5         -0.4126    1.7422    0.0000 CA        1 <0>         0.0000
      7 C6         -0.5830    0.9350    0.0000 CA        1 <0>         0.0000
      8 C7          0.0309    0.3838    0.0000 CM        1 <0>         0.0000
      9 C8          0.6712    0.8340    0.0000 CT        1 <0>         0.0000
     10 O2          0.5112    1.6494    0.0000 OS        1 <0>         0.0000
     11 C9          1.4667    0.3687    0.0000 CM        1 <0>         0.0000
     12 C10         2.2548    0.6128    0.0000 C         1 <0>         0.0000
     13 O3          2.4375    1.4173    0.0000 OS        1 <0>         0.0000
     14 C11         3.2255    1.6614    0.0000 CT        1 <0>         0.0000
     15 O4          2.8602    0.0523    0.0000 O         1 <0>         0.0000
     16 C12         1.1716   -0.2567    0.0000 CM        1 <0>         0.0000
     17 C13         1.4393   -1.0371    0.0000 C         1 <0>         0.0000
     18 O5          0.8972   -1.6590    0.0000 OS        1 <0>         0.0000
     19 C14         1.1649   -2.4394    0.0000 CT        1 <0>         0.0000
     20 O6          2.2489   -1.1955    0.0000 O         1 <0>         0.0000
     21 C15         0.4411    0.1136    0.0000 CT        1 <0>         0.0000
     22 C16        -0.3344   -0.2767    0.0000 CM        1 <0>         0.0000
     23 C17        -0.9290   -0.8486    0.0000 CA        1 <0>         0.0000
     24 C18        -1.7216   -0.6196    0.0000 CA        1 <0>         0.0000
     25 C19        -2.3162   -1.1915    0.0000 CA        1 <0>         0.0000
     26 C20        -2.1182   -1.9924    0.0000 CA        1 <0>         0.0000
     27 O7         -2.7128   -2.5643    0.0000 OH        1 <0>         0.0000
     28 C21        -1.3256   -2.2214    0.0000 CA        1 <0>         0.0000
     29 C22        -0.7310   -1.6495    0.0000 CA        1 <0>         0.0000
     30 H1          0.8479    1.3906    0.0000 H1        1 <0>         0.0000
     31 H2          0.4403   -0.4703    0.0000 H1        1 <0>         0.0000
     32 H3         -1.3672    0.6789    0.0000 HA        1 <0>         0.0000
     33 H4         -1.9811    1.2300    0.0000 HA        1 <0>         0.0000
     34 H5         -2.4246    2.5884    0.0000 HO        1 <0>         0.0000
     35 H6         -1.0265    2.2933    0.0000 HA        1 <0>         0.0000
     36 H7         -0.4126    1.7422    0.0000 HA        1 <0>         0.0000
     37 H8          3.2255    1.6614    0.0000 H1        1 <0>         0.0000
     38 H9          3.2255    1.6614    0.0000 H1        1 <0>         0.0000
     39 H10         3.2255    1.6614    0.0000 H1        1 <0>         0.0000
     40 H11         1.1649   -2.4394    0.0000 H1        1 <0>         0.0000
     41 H12         1.1649   -2.4394    0.0000 H1        1 <0>         0.0000
     42 H13         1.1649   -2.4394    0.0000 H1        1 <0>         0.0000
     43 H14        -1.7216   -0.6196    0.0000 HA        1 <0>         0.0000
     44 H15        -2.3162   -1.1915    0.0000 HA        1 <0>         0.0000
     45 H16        -2.7128   -2.5643    0.0000 HO        1 <0>         0.0000
     46 H17        -1.3256   -2.2214    0.0000 HA        1 <0>         0.0000
     47 H18        -0.7310   -1.6495    0.0000 HA        1 <0>         0.0000
@<TRIPOS>BOND
     1    1    2 ar
     2    2    3 ar
     3    3    4 1
     4    3    5 ar
     5    5    6 ar
     6    6    7 ar
     7    1    7 ar
     8    7    8 1
     9    8   22 2
    10    8    9 1
    11    9   30 1
    12    9   10 1
    13   10   21 1
    14    9   11 1
    15   11   16 2
    16   12   13 1
    17   11   12 1
    18   13   14 1
    19   12   15 2
    20   16   21 1
    21   16   17 1
    22   17   18 1
    23   18   19 1
    24   17   20 2
    25   21   22 1
    26   21   31 1
    27   22   23 1
    28   23   29 ar
    29   23   24 ar
    30   24   25 ar
    31   25   26 ar
    32   26   27 1
    33   26   28 ar
    34   28   29 ar
    35    1   32 1
    36    2   33 1
    37    4   34 1
    38    5   35 1
    39    6   36 1
    40   14   37 1
    41   14   38 1
    42   14   39 1
    43   19   40 1
    44   19   41 1
    45   19   42 1
    46   24   43 1
    47   25   44 1
    48   27   45 1
    49   28   46 1
    50   29   47 1
@<TRIPOS>MOLECULE
I0G
   39    42     0     0     0
SMALL
NO_CHARGES

@<TRIPOS>ATOM
      1 C1          0.2635   -3.7888    0.0000 CT        1 <0>         0.0000
      2 C2         -0.5611   -3.7631    0.0000 CA        1 <0>         0.0000
      3 C3         -0.9957   -4.4643    0.0000 CA        1 <0>         0.0000
      4 C4         -1.8203   -4.4386    0.0000 CA        1 <0>         0.0000
      5 C5         -2.2103   -3.7115    0.0000 CA        1 <0>         0.0000
      6 C6          1.5673   -1.6851    0.0000 CA        1 <0>         0.0000
      7 C7          0.7873   -0.2311    0.0000 CA        1 <0>         0.0000
      8 C8          0.3527   -0.9323    0.0000 CA        1 <0>         0.0000
      9 C9          1.5599   -4.1070    0.0000 CT        1 <0>         0.0000
     10 C10         1.4993   -3.2842    0.0000 CT        1 <0>         0.0000
     11 C11         0.6981   -3.0876    0.0000 CT        1 <0>         0.0000
     12 O1         -2.2549   -5.1398    0.0000 OH        1 <0>         0.0000
     13 C12        -1.7757   -3.0103    0.0000 CA        1 <0>         0.0000
     14 C13        -0.9511   -3.0361    0.0000 CA        1 <0>         0.0000
     15 O2         -0.5165   -2.3348    0.0000 OS        1 <0>         0.0000
     16 C14         0.3081   -2.3606    0.0000 CT        1 <0>         0.0000
     17 C15         0.7427   -1.6594    0.0000 CA        1 <0>         0.0000
     18 C16         2.0019   -0.9839    0.0000 CA        1 <0>         0.0000
     19 C17         1.6119   -0.2569    0.0000 CA        1 <0>         0.0000
     20 O3          2.0465    0.4444    0.0000 OH        1 <0>         0.0000
     21 C18         0.7961   -4.4189    0.0000 CT        1 <0>         0.0000
     22 H1          0.0094   -4.3146    0.0000 HC        1 <0>         0.0000
     23 H2          1.0559   -2.6261    0.0000 HC        1 <0>         0.0000
     24 H3          0.8917   -2.3788    0.0000 H1        1 <0>         0.0000
     25 H4         -0.9957   -4.4643    0.0000 HA        1 <0>         0.0000
     26 H5         -2.2103   -3.7115    0.0000 HA        1 <0>         0.0000
     27 H6          1.5673   -1.6851    0.0000 HA        1 <0>         0.0000
     28 H7          0.7873   -0.2311    0.0000 HA        1 <0>         0.0000
     29 H8          0.3527   -0.9323    0.0000 HA        1 <0>         0.0000
     30 H9          1.5599   -4.1070    0.0000 HC        1 <0>         0.0000
     31 H10         1.5599   -4.1070    0.0000 HC        1 <0>         0.0000
     32 H11         1.4993   -3.2842    0.0000 HC        1 <0>         0.0000
     33 H12         1.4993   -3.2842    0.0000 HC        1 <0>         0.0000
     34 H13        -2.2549   -5.1398    0.0000 HO        1 <0>         0.0000
     35 H14        -1.7757   -3.0103    0.0000 HA        1 <0>         0.0000
     36 H15         2.0019   -0.9839    0.0000 HA        1 <0>         0.0000
     37 H16         2.0465    0.4444    0.0000 HO        1 <0>         0.0000
     38 H17         0.7961   -4.4189    0.0000 HC        1 <0>         0.0000
     39 H18         0.7961   -4.4189    0.0000 HC        1 <0>         0.0000
@<TRIPOS>BOND
     1    1   21 1
     2    1    2 1
     3    1   11 1
     4    1   22 1
     5    2    3 ar
     6    2   14 ar
     7    3    4 ar
     8    4   12 1
     9    4    5 ar
    10    5   13 ar
    11    6   17 ar
    12    6   18 ar
    13    7    8 ar
    14    7   19 ar
    15    8   17 ar
    16    9   21 1
    17    9   10 1
    18   10   11 1
    19   11   16 1
    20   11   23 1
    21   13   14 ar
    22   14   15 1
    23   15   16 1
    24   16   17 1
    25   16   24 1
    26   18   19 ar
    27   19   20 1
    28    3   25 1
    29    5   26 1
    30    6   27 1
    31    7   28 1
    32    8   29 1
    33    9   30 1
    34    9   31 1
    35   10   32 1
    36   10   33 1
    37   12   34 1
    38   13   35 1
    39   18   36 1
    40   20   37 1
    41   21   38 1
    42   21   39 1
@<TRIPOS>MOLECULE
JJ3
   46    49     0     0     0
SMALL
NO_CHARGES

@<TRIPOS>ATOM
      1 C1         -1.7465   -1.8434    0.0000 CA        1 <0>         0.0000
      2 C2         -2.1365   -1.1164    0.0000 CA        1 <0>         0.0000
      3 C3         -1.7019   -0.4152    0.0000 CA        1 <0>         0.0000
      4 C4         -0.8773   -0.4410    0.0000 CA        1 <0>         0.0000
      5 O1         -0.4427    0.2603    0.0000 OS        1 <0>         0.0000
      6 C5          0.3819    0.2345    0.0000 CT        1 <0>         0.0000
      7 C6          0.7719   -0.4925    0.0000 CT        1 <0>         0.0000
      8 C7          1.5731   -0.6891    0.0000 CT        1 <0>         0.0000
      9 C8          1.6337   -1.5119    0.0000 CT        1 <0>         0.0000
     10 C9          0.8699   -1.8238    0.0000 CT        1 <0>         0.0000
     11 C10         0.3373   -1.1937    0.0000 CT        1 <0>         0.0000
     12 C11        -0.4873   -1.1680    0.0000 CA        1 <0>         0.0000
     13 C12        -0.9219   -1.8692    0.0000 CA        1 <0>         0.0000
     14 C13         0.8165    0.9358    0.0000 CA        1 <0>         0.0000
     15 C14         0.4265    1.6628    0.0000 CA        1 <0>         0.0000
     16 C15         0.8611    2.3640    0.0000 CA        1 <0>         0.0000
     17 C16         1.6857    2.3382    0.0000 CA        1 <0>         0.0000
     18 O2          2.1204    3.0395    0.0000 OH        1 <0>         0.0000
     19 C17         2.0757    1.6112    0.0000 CA        1 <0>         0.0000
     20 C18         1.6411    0.9100    0.0000 CA        1 <0>         0.0000
     21 C19        -2.0919    0.3118    0.0000 CT        1 <0>         0.0000
     22 O3         -1.6573    1.0131    0.0000 OS        1 <0>         0.0000
     23 C20        -2.0473    1.7401    0.0000 CT        1 <0>         0.0000
     24 O4         -2.1811   -2.5447    0.0000 OH        1 <0>         0.0000
     25 H1          0.1059    0.7491    0.0000 H1        1 <0>         0.0000
     26 H2          1.1297   -0.0310    0.0000 HC        1 <0>         0.0000
     27 H3          0.0832   -1.7195    0.0000 HC        1 <0>         0.0000
     28 H4         -2.1365   -1.1164    0.0000 HA        1 <0>         0.0000
     29 H5          1.5731   -0.6891    0.0000 HC        1 <0>         0.0000
     30 H6          1.5731   -0.6891    0.0000 HC        1 <0>         0.0000
     31 H7          1.6337   -1.5119    0.0000 HC        1 <0>         0.0000
     32 H8          1.6337   -1.5119    0.0000 HC        1 <0>         0.0000
     33 H9          0.8699   -1.8238    0.0000 HC        1 <0>         0.0000
     34 H10         0.8699   -1.8238    0.0000 HC        1 <0>         0.0000
     35 H11        -0.9219   -1.8692    0.0000 HA        1 <0>         0.0000
     36 H12         0.4265    1.6628    0.0000 HA        1 <0>         0.0000
     37 H13         0.8611    2.3640    0.0000 HA        1 <0>         0.0000
     38 H14         2.1204    3.0395    0.0000 HO        1 <0>         0.0000
     39 H15         2.0757    1.6112    0.0000 HA        1 <0>         0.0000
     40 H16         1.6411    0.9100    0.0000 HA        1 <0>         0.0000
     41 H17        -2.0919    0.3118    0.0000 H1        1 <0>         0.0000
     42 H18        -2.0919    0.3118    0.0000 H1        1 <0>         0.0000
     43 H19        -2.0473    1.7401    0.0000 H1        1 <0>         0.0000
     44 H20        -2.0473    1.7401    0.0000 H1        1 <0>         0.0000
     45 H21        -2.0473    1.7401    0.0000 H1        1 <0>         0.0000
     46 H22        -2.1811   -2.5447    0.0000 HO        1 <0>         0.0000
@<TRIPOS>BOND
     1    1    2 ar
     2    1   13 ar
     3    1   24 1
     4    2    3 ar
     5    3    4 ar
     6    3   21 1
     7    4    5 1
     8    4   12 ar
     9    5    6 1
    10    6    7 1
    11    6   14 1
    12    6   25 1
    13    7    8 1
    14    7   11 1
    15    7   26 1
    16    8    9 1
    17    9   10 1
    18   10   11 1
    19   11   12 1
    20   11   27 1
    21   12   13 ar
    22   14   15 ar
    23   14   20 ar
    24   15   16 ar
    25   16   17 ar
    26   17   18 1
    27   17   19 ar
    28   19   20 ar
    29   21   22 1
    30   22   23 1
    31    2   28 1
    32    8   29 1
    33    8   30 1
    34    9   31 1
    35    9   32 1
    36   10   33 1
    37   10   34 1
    38   13   35 1
    39   15   36 1
    40   16   37 1
    41   18   38 1
    42   19   39 1
    43   20   40 1
    44   21   41 1
    45   21   42 1
    46   23   43 1
    47   23   44 1
    48   23   45 1
    49   24   46 1
@<TRIPOS>MOLECULE
KOM
   29    31     0     0     0
SMALL
NO_CHARGES

@<TRIPOS>ATOM
      1 O1         -2.3175    1.8798    0.0000 O         1 <0>         0.0000
      2 C1         -1.6030    1.4673    0.0000 C         1 <0>         0.0000
      3 O2         -0.8885    1.8798    0.0000 OS        1 <0>         0.0000
      4 C2         -0.1740    1.4673    0.0000 CB        1 <0>         0.0000
      5 C3          0.5404    1.8798    0.0000 CA        1 <0>         0.0000
      6 O3          0.5404    2.7048    0.0000 OH        1 <0>         0.0000
      7 C4          1.2549    1.4673    0.0000 CA        1 <0>         0.0000
      8 O4          1.9694    1.8798    0.0000 OH        1 <0>         0.0000
      9 C5          1.2549    0.6423    0.0000 CA        1 <0>         0.0000
     10 C6         -1.6030    0.6423    0.0000 CA        1 <0>         0.0000
     11 C7         -0.8885    0.2298    0.0000 CP        1 <0>         0.0000
     12 C8         -0.1740    0.6423    0.0000 CB        1 <0>         0.0000
     13 C9          0.5404    0.2298    0.0000 CA        1 <0>         0.0000
     14 C10        -0.8885   -0.5952    0.0000 CP        1 <0>         0.0000
     15 C11        -0.1740   -1.0077    0.0000 CA        1 <0>         0.0000
     16 C12        -0.1740   -1.8327    0.0000 CA        1 <0>         0.0000
     17 C13        -0.8885   -2.2452    0.0000 CA        1 <0>         0.0000
     18 C14        -1.6030   -1.8327    0.0000 CA        1 <0>         0.0000
     19 C15        -1.6030   -1.0077    0.0000 CA        1 <0>         0.0000
     20 H1          0.5404    2.7048    0.0000 HO        1 <0>         0.0000
     21 H2          1.9694    1.8798    0.0000 HO        1 <0>         0.0000
     22 H3          1.2549    0.6423    0.0000 HA        1 <0>         0.0000
     23 H4         -1.6030    0.6423    0.0000 HA        1 <0>         0.0000
     24 H5          0.5404    0.2298    0.0000 HA        1 <0>         0.0000
     25 H6         -0.1740   -1.0077    0.0000 HA        1 <0>         0.0000
     26 H7         -0.1740   -1.8327    0.0000 HA        1 <0>         0.0000
     27 H8         -0.8885   -2.2452    0.0000 HA        1 <0>         0.0000
     28 H9         -1.6030   -1.8327    0.0000 HA        1 <0>         0.0000
     29 H10        -1.6030   -1.0077    0.0000 HA        1 <0>         0.0000
@<TRIPOS>BOND
     1    1    2 2
     2    2    3 1
     3    2   10 1
     4    3    4 1
     5    4    5 ar
     6    4   12 ar
     7    5    6 1
     8    5    7 ar
     9    7    8 1
    10    7    9 ar
    11    9   13 ar
    12   10   11 2
    13   11   12 1
    14   11   14 1
    15   12   13 ar
    16   14   15 ar
    17   14   19 ar
    18   15   16 ar
    19   16   17 ar
    20   17   18 ar
    21   18   19 ar
    22    6   20 1
    23    8   21 1
    24    9   22 1
    25   10   23 1
    26   13   24 1
    27   15   25 1
    28   16   26 1
    29   17   27 1
    30   18   28 1
    31   19   29 1
@<TRIPOS>MOLECULE
KPV
   26    26     0     0     0
SMALL
NO_CHARGES

@<TRIPOS>ATOM
      1 C1         -0.6062   -0.0468    0.0000 CA        1 <0>         0.0000
      2 C2         -0.6062    0.7782    0.0000 CA        1 <0>         0.0000
      3 C3         -1.3207    1.1907    0.0000 CA        1 <0>         0.0000
      4 C4         -2.0352    0.7782    0.0000 CA        1 <0>         0.0000
      5 C5         -2.0352   -0.0468    0.0000 CA        1 <0>         0.0000
      6 C6         -1.3207   -0.4593    0.0000 CA        1 <0>         0.0000
      7 C7          0.1082   -0.4593    0.0000 CT        1 <0>         0.0000
      8 C8          0.8227   -0.0468    0.0000 CT        1 <0>         0.0000
      9 C9          1.5372   -0.4593    0.0000 CT        1 <0>         0.0000
     10 C10         2.2517   -0.0468    0.0000 C         1 <0>         0.0000
     11 C11         2.9661   -0.4593    0.0000 C         1 <0>         0.0000
     12 O1          3.6806   -0.0468    0.0000 O         1 <0>         0.0000
     13 O2          2.9661   -1.2843    0.0000 OH        1 <0>         0.0000
     14 O3          2.2517    0.7782    0.0000 O         1 <0>         0.0000
     15 H1         -0.6062    0.7782    0.0000 HA        1 <0>         0.0000
     16 H2         -1.3207    1.1907    0.0000 HA        1 <0>         0.0000
     17 H3         -2.0352    0.7782    0.0000 HA        1 <0>         0.0000
     18 H4         -2.0352   -0.0468    0.0000 HA        1 <0>         0.0000
     19 H5         -1.3207   -0.4593    0.0000 HA        1 <0>         0.0000
     20 H6          0.1082   -0.4593    0.0000 HC        1 <0>         0.0000
     21 H7          0.1082   -0.4593    0.0000 HC        1 <0>         0.0000
     22 H8          0.8227   -0.0468    0.0000 HC        1 <0>         0.0000
     23 H9          0.8227   -0.0468    0.0000 HC        1 <0>         0.0000
     24 H10         1.5372   -0.4593    0.0000 HC        1 <0>         0.0000
     25 H11         1.5372   -0.4593    0.0000 HC        1 <0>         0.0000
     26 H12         2.9661   -1.2843    0.0000 HO        1 <0>         0.0000
@<TRIPOS>BOND
     1    1    6 ar
     2    1    2 ar
     3    1    7 1
     4    2    3 ar
     5    3    4 ar
     6    4    5 ar
     7    5    6 ar
     8    7    8 1
     9    8    9 1
    10    9   10 1
    11   10   11 1
    12   10   14 2
    13   11   12 2
    14   11   13 1
    15    2   15 1
    16    3   16 1
    17    4   17 1
    18    5   18 1
    19    6   19 1
    20    7   20 1
    21    7   21 1
    22    8   22 1
    23    8   23 1
    24    9   24 1
    25    9   25 1
    26   13   26 1
@<TRIPOS>MOLECULE
KWT
   55    59     0     0     0
SMALL
NO_CHARGES

@<TRIPOS>ATOM
      1 C1         -1.1719    0.4412    0.0000 CT        1 <0>         0.0000
      2 O1         -1.8844    0.8537    0.0000 OS        1 <0>         0.0000
      3 C2         -0.4594    0.8537    0.0000 CT        1 <0>         0.0000
      4 C3         -1.1719   -0.3838    0.0000 CT        1 <0>         0.0000
      5 C4         -1.8844    1.6787    0.0000 C         1 <0>         0.0000
      6 O2         -2.5991    2.0908    0.0000 O         1 <0>         0.0000
      7 C5         -1.1719    2.0912    0.0000 CC        1 <0>         0.0000
      8 C6         -0.4594    1.6787    0.0000 CC        1 <0>         0.0000
      9 C7         -0.8719    2.9484    0.0000 CW        1 <0>         0.0000
     10 C8          0.2585    2.0912    0.0000 CW        1 <0>         0.0000
     11 C9          0.9710    1.6787    0.0000 C         1 <0>         0.0000
     12 O3         -0.0469    2.9484    0.0000 OS        1 <0>         0.0000
     13 O4          1.6857    2.0908    0.0000 O         1 <0>         0.0000
     14 C10         0.9710    0.8537    0.0000 CM        1 <0>         0.0000
     15 O5         -0.4560   -0.7980    0.0000 OS        1 <0>         0.0000
     16 C11         0.2580   -0.3846    0.0000 CT        1 <0>         0.0000
     17 C12        -0.4550   -1.6230    0.0000 C         1 <0>         0.0000
     18 C13         0.2570    0.4404    0.0000 CM        1 <0>         0.0000
     19 C14         1.6859    0.4421    0.0000 CT        1 <0>         0.0000
     20 C15        -0.4588    0.0287    0.0000 CT        1 <0>         0.0000
     21 C16         0.9729   -0.7963    0.0000 CT        1 <0>         0.0000
     22 C17         1.6869   -0.3829    0.0000 CT        1 <0>         0.0000
     23 C18         1.7741   -1.2033    0.0000 CT        1 <0>         0.0000
     24 C19         2.4718   -0.6369    0.0000 C         1 <0>         0.0000
     25 C20         2.4702    0.6980    0.0000 CT        1 <0>         0.0000
     26 C21         2.9560    0.0311    0.0000 CT        1 <0>         0.0000
     27 O6          2.7277   -1.4212    0.0000 O         1 <0>         0.0000
     28 O7          0.2600   -2.0346    0.0000 O         1 <0>         0.0000
     29 C22        -1.1690   -2.0363    0.0000 CT        1 <0>         0.0000
     30 O8         -1.8864   -0.7963    0.0000 OS        1 <0>         0.0000
     31 C23        -2.6008   -0.3838    0.0000 CT        1 <0>         0.0000
     32 H1         -1.6778    0.1496    0.0000 H1        1 <0>         0.0000
     33 H2         -0.3172   -0.2839    0.0000 H1        1 <0>         0.0000
     34 H3          1.7463    1.0229    0.0000 HC        1 <0>         0.0000
     35 H4         -1.1719   -0.3838    0.0000 H1        1 <0>         0.0000
     36 H5         -1.1719   -0.3838    0.0000 H1        1 <0>         0.0000
     37 H6         -0.8719    2.9484    0.0000 H4        1 <0>         0.0000
     38 H7         -0.4588    0.0287    0.0000 HC        1 <0>         0.0000
     39 H8         -0.4588    0.0287    0.0000 HC        1 <0>         0.0000
     40 H9         -0.4588    0.0287    0.0000 HC        1 <0>         0.0000
     41 H10         0.9729   -0.7963    0.0000 HC        1 <0>         0.0000
     42 H11         0.9729   -0.7963    0.0000 HC        1 <0>         0.0000
     43 H12         1.7741   -1.2033    0.0000 HC        1 <0>         0.0000
     44 H13         1.7741   -1.2033    0.0000 HC        1 <0>         0.0000
     45 H14         1.7741   -1.2033    0.0000 HC        1 <0>         0.0000
     46 H15         2.4702    0.6980    0.0000 HC        1 <0>         0.0000
     47 H16         2.4702    0.6980    0.0000 HC        1 <0>         0.0000
     48 H17         2.9560    0.0311    0.0000 HC        1 <0>         0.0000
     49 H18         2.9560    0.0311    0.0000 HC        1 <0>         0.0000
     50 H19        -1.1690   -2.0363    0.0000 HC        1 <0>         0.0000
     51 H20        -1.1690   -2.0363    0.0000 HC        1 <0>         0.0000
     52 H21        -1.1690   -2.0363    0.0000 HC        1 <0>         0.0000
     53 H22        -2.6008   -0.3838    0.0000 H1        1 <0>         0.0000
     54 H23        -2.6008   -0.3838    0.0000 H1        1 <0>         0.0000
     55 H24        -2.6008   -0.3838    0.0000 H1        1 <0>         0.0000
@<TRIPOS>BOND
     1    1    2 1
     2    1    3 1
     3    1    4 1
     4    1   32 1
     5    2    5 1
     6    3    8 1
     7    3   18 1
     8    3   20 1
     9    4   30 1
    10    5    6 2
    11    5    7 1
    12    7    8 1
    13    7    9 2
    14    8   10 2
    15    9   12 1
    16   10   11 1
    17   10   12 1
    18   11   13 2
    19   11   14 1
    20   14   18 2
    21   14   19 1
    22   15   16 1
    23   15   17 1
    24   16   18 1
    25   16   21 1
    26   16   33 1
    27   17   28 2
    28   17   29 1
    29   19   22 1
    30   19   25 1
    31   19   34 1
    32   21   22 1
    33   22   23 1
    34   22   24 1
    35   24   26 1
    36   24   27 2
    37   25   26 1
    38   30   31 1
    39    4   35 1
    40    4   36 1
    41    9   37 1
    42   20   38 1
    43   20   39 1
    44   20   40 1
    45   21   41 1
    46   21   42 1
    47   23   43 1
    48   23   44 1
    49   23   45 1
    50   25   46 1
    51   25   47 1
    52   26   48 1
    53   26   49 1
    54   29   50 1
    55   29   51 1
    56   29   52 1
    57   31   53 1
    58   31   54 1
    59   31   55 1
@<TRIPOS>MOLECULE
L41
   55    56     0     0     0
SMALL
NO_CHARGES

@<TRIPOS>ATOM
      1 C1         -2.8631   -0.8657    0.0000 CA        1 <0>         0.0000
      2 C2         -2.1486   -0.4532    0.0000 CA        1 <0>         0.0000
      3 C3         -3.5776   -0.4532    0.0000 CA        1 <0>         0.0000
      4 C4         -2.8631   -1.6907    0.0000 CT        1 <0>         0.0000
      5 C5         -2.1486    0.3718    0.0000 CA        1 <0>         0.0000
      6 O1         -1.4342   -0.8657    0.0000 OS        1 <0>         0.0000
      7 C6         -3.5776    0.3718    0.0000 CA        1 <0>         0.0000
      8 O2         -4.2920   -0.8657    0.0000 OH        1 <0>         0.0000
      9 C7         -2.1486   -2.1032    0.0000 CT        1 <0>         0.0000
     10 C8         -2.8631    0.7843    0.0000 CA        1 <0>         0.0000
     11 C9         -0.7197   -0.4532    0.0000 CT        1 <0>         0.0000
     12 C10        -4.2920    0.7843    0.0000 C         1 <0>         0.0000
     13 C11        -2.1486   -2.9282    0.0000 CT        1 <0>         0.0000
     14 C12        -0.0052   -0.8657    0.0000 CT        1 <0>         0.0000
     15 C13        -4.2920    1.6093    0.0000 CT        1 <0>         0.0000
     16 O3         -5.0065    0.3718    0.0000 O         1 <0>         0.0000
     17 C14         0.7093   -0.4532    0.0000 CT        1 <0>         0.0000
     18 O4          1.4237   -0.8657    0.0000 OS        1 <0>         0.0000
     19 C15         2.1382   -0.4532    0.0000 CA        1 <0>         0.0000
     20 C16         2.8527   -0.8657    0.0000 CA        1 <0>         0.0000
     21 C17         2.1382    0.3718    0.0000 CA        1 <0>         0.0000
     22 C18         3.5671   -0.4532    0.0000 CA        1 <0>         0.0000
     23 C19         2.8527    0.7843    0.0000 CA        1 <0>         0.0000
     24 C20         3.5671    0.3718    0.0000 CA        1 <0>         0.0000
     25 O5          4.2816    0.7843    0.0000 OS        1 <0>         0.0000
     26 C21         4.2816    1.6093    0.0000 CT        1 <0>         0.0000
     27 C22         4.9961    2.0218    0.0000 C         1 <0>         0.0000
     28 O6          4.9961    2.8468    0.0000 OH        1 <0>         0.0000
     29 O7          5.7106    1.6093    0.0000 O         1 <0>         0.0000
     30 H1         -2.8631   -1.6907    0.0000 HC        1 <0>         0.0000
     31 H2         -2.8631   -1.6907    0.0000 HC        1 <0>         0.0000
     32 H3         -2.1486    0.3718    0.0000 HA        1 <0>         0.0000
     33 H4         -4.2920   -0.8657    0.0000 HO        1 <0>         0.0000
     34 H5         -2.1486   -2.1032    0.0000 HC        1 <0>         0.0000
     35 H6         -2.1486   -2.1032    0.0000 HC        1 <0>         0.0000
     36 H7         -2.8631    0.7843    0.0000 HA        1 <0>         0.0000
     37 H8         -0.7197   -0.4532    0.0000 H1        1 <0>         0.0000
     38 H9         -0.7197   -0.4532    0.0000 H1        1 <0>         0.0000
     39 H10        -2.1486   -2.9282    0.0000 HC        1 <0>         0.0000
     40 H11        -2.1486   -2.9282    0.0000 HC        1 <0>         0.0000
     41 H12        -2.1486   -2.9282    0.0000 HC        1 <0>         0.0000
     42 H13        -0.0052   -0.8657    0.0000 HC        1 <0>         0.0000
     43 H14        -0.0052   -0.8657    0.0000 HC        1 <0>         0.0000
     44 H15        -4.2920    1.6093    0.0000 HC        1 <0>         0.0000
     45 H16        -4.2920    1.6093    0.0000 HC        1 <0>         0.0000
     46 H17        -4.2920    1.6093    0.0000 HC        1 <0>         0.0000
     47 H18         0.7093   -0.4532    0.0000 H1        1 <0>         0.0000
     48 H19         0.7093   -0.4532    0.0000 H1        1 <0>         0.0000
     49 H20         2.8527   -0.8657    0.0000 HA        1 <0>         0.0000
     50 H21         2.1382    0.3718    0.0000 HA        1 <0>         0.0000
     51 H22         3.5671   -0.4532    0.0000 HA        1 <0>         0.0000
     52 H23         2.8527    0.7843    0.0000 HA        1 <0>         0.0000
     53 H24         4.2816    1.6093    0.0000 H1        1 <0>         0.0000
     54 H25         4.2816    1.6093    0.0000 H1        1 <0>         0.0000
     55 H26         4.9961    2.8468    0.0000 HO        1 <0>         0.0000
@<TRIPOS>BOND
     1    1    4 1
     2    1    2 ar
     3    2    6 1
     4    1    3 ar
     5    3    8 1
     6    4    9 1
     7    2    5 ar
     8    3    7 ar
     9    9   13 1
    10    5   10 ar
    11    7   10 ar
    12    6   11 1
    13   11   14 1
    14    7   12 1
    15   12   16 2
    16   14   17 1
    17   12   15 1
    18   17   18 1
    19   18   19 1
    20   19   21 ar
    21   19   20 ar
    22   20   22 ar
    23   22   24 ar
    24   21   23 ar
    25   23   24 ar
    26   24   25 1
    27   25   26 1
    28   26   27 1
    29   27   29 2
    30   27   28 1
    31    4   30 1
    32    4   31 1
    33    5   32 1
    34    8   33 1
    35    9   34 1
    36    9   35 1
    37   10   36 1
    38   11   37 1
    39   11   38 1
    40   13   39 1
    41   13   40 1
    42   13   41 1
    43   14   42 1
    44   14   43 1
    45   15   44 1
    46   15   45 1
    47   15   46 1
    48   17   47 1
    49   17   48 1
    50   20   49 1
    51   21   50 1
    52   22   51 1
    53   23   52 1
    54   26   53 1
    55   26   54 1
    56   28   55 1
@<TRIPOS>MOLECULE
LEG
   36    36     0     0     0
SMALL
NO_CHARGES

@<TRIPOS>ATOM
      1 C1         -4.2176   -0.2936    0.0000 CT        1 <0>         0.0000
      2 C2         -3.5031   -0.7061    0.0000 CT        1 <0>         0.0000
      3 C3         -2.7887   -0.2936    0.0000 CT        1 <0>         0.0000
      4 C4         -2.0742   -0.7061    0.0000 CT        1 <0>         0.0000
      5 C5         -1.3597   -0.2936    0.0000 CT        1 <0>         0.0000
      6 C6         -0.6452   -0.7061    0.0000 CT        1 <0>         0.0000
      7 C7          0.0692   -0.2936    0.0000 CA        1 <0>         0.0000
      8 C8          0.7837   -0.7061    0.0000 CA        1 <0>         0.0000
      9 C9          1.4982   -0.2936    0.0000 CA        1 <0>         0.0000
     10 C10         0.0692    0.5314    0.0000 CA        1 <0>         0.0000
     11 C11         0.7837    0.9439    0.0000 CA        1 <0>         0.0000
     12 C12         1.4982    0.5314    0.0000 CA        1 <0>         0.0000
     13 C13         2.2126    0.9439    0.0000 C         1 <0>         0.0000
     14 O1          2.2126    1.7689    0.0000 O         1 <0>         0.0000
     15 C14         2.9271    0.5314    0.0000 CM        1 <0>         0.0000
     16 C15         3.6416    0.9439    0.0000 CM        1 <0>         0.0000
     17 H1         -4.2176   -0.2936    0.0000 HC        1 <0>         0.0000
     18 H2         -4.2176   -0.2936    0.0000 HC        1 <0>         0.0000
     19 H3         -4.2176   -0.2936    0.0000 HC        1 <0>         0.0000
     20 H4         -3.5031   -0.7061    0.0000 HC        1 <0>         0.0000
     21 H5         -3.5031   -0.7061    0.0000 HC        1 <0>         0.0000
     22 H6         -2.7887   -0.2936    0.0000 HC        1 <0>         0.0000
     23 H7         -2.7887   -0.2936    0.0000 HC        1 <0>         0.0000
     24 H8         -2.0742   -0.7061    0.0000 HC        1 <0>         0.0000
     25 H9         -2.0742   -0.7061    0.0000 HC        1 <0>         0.0000
     26 H10        -1.3597   -0.2936    0.0000 HC        1 <0>         0.0000
     27 H11        -1.3597   -0.2936    0.0000 HC        1 <0>         0.0000
     28 H12        -0.6452   -0.7061    0.0000 HC        1 <0>         0.0000
     29 H13        -0.6452   -0.7061    0.0000 HC        1 <0>         0.0000
     30 H14         0.7837   -0.7061    0.0000 HA        1 <0>         0.0000
     31 H15         1.4982   -0.2936    0.0000 HA        1 <0>         0.0000
     32 H16         0.0692    0.5314    0.0000 HA        1 <0>         0.0000
     33 H17         0.7837    0.9439    0.0000 HA        1 <0>         0.0000
     34 H18         2.9271    0.5314    0.0000 HA        1 <0>         0.0000
     35 H19         3.6416    0.9439    0.0000 HA        1 <0>         0.0000
     36 H20         3.6416    0.9439    0.0000 HA        1 <0>         0.0000
@<TRIPOS>BOND
     1    1    2 1
     2    2    3 1
     3    3    4 1
     4    4    5 1
     5    5    6 1
     6    6    7 1
     7    7   10 ar
     8    7    8 ar
     9    8    9 ar
    10    9   12 ar
    11   10   11 ar
    12   11   12 ar
    13   12   13 1
    14   13   14 2
    15   13   15 1
    16   15   16 2
    17    1   17 1
    18    1   18 1
    19    1   19 1
    20    2   20 1
    21    2   21 1
    22    3   22 1
    23    3   23 1
    24    4   24 1
    25    4   25 1
    26    5   26 1
    27    5   27 1
    28    6   28 1
    29    6   29 1
    30    8   30 1
    31    9   31 1
    32   10   32 1
    33   11   33 1
    34   15   34 1
    35   16   35 1
    36   16   36 1
@<TRIPOS>MOLECULE
LJ1
   33    34     0     0     0
SMALL
NO_CHARGES

@<TRIPOS>ATOM
      1 C1         -1.2474    2.0037    0.0000 CT        1 <0>         0.0000
      2 C2         -1.2474    1.1787    0.0000 CA        1 <0>         0.0000
      3 C3         -0.5329    0.7662    0.0000 CA        1 <0>         0.0000
      4 C4         -1.9618    0.7662    0.0000 CA        1 <0>         0.0000
      5 O1         -2.6763    1.1787    0.0000 OH        1 <0>         0.0000
      6 C5         -1.9618   -0.0588    0.0000 CA        1 <0>         0.0000
      7 C6         -2.6763   -0.4713    0.0000 CT        1 <0>         0.0000
      8 C7         -1.2474   -0.4713    0.0000 CA        1 <0>         0.0000
      9 C8         -0.5329   -0.0588    0.0000 CA        1 <0>         0.0000
     10 C9          0.1816   -0.4713    0.0000 CM        1 <0>         0.0000
     11 C10         0.8961   -0.0588    0.0000 CM        1 <0>         0.0000
     12 C11         1.6105   -0.4713    0.0000 CA        1 <0>         0.0000
     13 C12         2.3250   -0.0588    0.0000 CA        1 <0>         0.0000
     14 C13         3.0395   -0.4713    0.0000 CA        1 <0>         0.0000
     15 C14         3.0395   -1.2963    0.0000 CA        1 <0>         0.0000
     16 C15         2.3250   -1.7088    0.0000 CA        1 <0>         0.0000
     17 C16         1.6105   -1.2963    0.0000 CA        1 <0>         0.0000
     18 H1         -1.2474    2.0037    0.0000 HC        1 <0>         0.0000
     19 H2         -1.2474    2.0037    0.0000 HC        1 <0>         0.0000
     20 H3         -1.2474    2.0037    0.0000 HC        1 <0>         0.0000
     21 H4         -0.5329    0.7662    0.0000 HA        1 <0>         0.0000
     22 H5         -2.6763    1.1787    0.0000 HO        1 <0>         0.0000
     23 H6         -2.6763   -0.4713    0.0000 HC        1 <0>         0.0000
     24 H7         -2.6763   -0.4713    0.0000 HC        1 <0>         0.0000
     25 H8         -2.6763   -0.4713    0.0000 HC        1 <0>         0.0000
     26 H9         -1.2474   -0.4713    0.0000 HA        1 <0>         0.0000
     27 H10         0.1816   -0.4713    0.0000 HA        1 <0>         0.0000
     28 H11         0.8961   -0.0588    0.0000 HA        1 <0>         0.0000
     29 H12         2.3250   -0.0588    0.0000 HA        1 <0>         0.0000
     30 H13         3.0395   -0.4713    0.0000 HA        1 <0>         0.0000
     31 H14         3.0395   -1.2963    0.0000 HA        1 <0>         0.0000
     32 H15         2.3250   -1.7088    0.0000 HA        1 <0>         0.0000
     33 H16         1.6105   -1.2963    0.0000 HA        1 <0>         0.0000
@<TRIPOS>BOND
     1    1    2 1
     2    2    3 ar
     3    2    4 ar
     4    3    9 ar
     5    4    5 1
     6    4    6 ar
     7    6    7 1
     8    6    8 ar
     9    8    9 ar
    10    9   10 1
    11   10   11 2
    12   11   12 1
    13   12   13 ar
    14   12   17 ar
    15   13   14 ar
    16   14   15 ar
    17   15   16 ar
    18   16   17 ar
    19    1   18 1
    20    1   19 1
    21    1   20 1
    22    3   21 1
    23    5   22 1
    24    7   23 1
    25    7   24 1
    26    7   25 1
    27    8   26 1
    28   10   27 1
    29   11   28 1
    30   13   29 1
    31   14   30 1
    32   15   31 1
    33   16   32 1
    34   17   33 1
@<TRIPOS>MOLECULE
LRG
   42    44     0     0     0
SMALL
NO_CHARGES

@<TRIPOS>ATOM
      1 C1         -3.1111    1.0225    0.0000 CA        1 <0>         0.0000
      2 C2         -3.8256    0.6100    0.0000 CA        1 <0>         0.0000
      3 C3         -3.8256   -0.2150    0.0000 CA        1 <0>         0.0000
      4 C4         -3.1111   -0.6275    0.0000 CA        1 <0>         0.0000
      5 C5         -2.3967   -0.2150    0.0000 CA        1 <0>         0.0000
      6 C6         -2.3967    0.6100    0.0000 CA        1 <0>         0.0000
      7 C7         -1.6822    1.0225    0.0000 CT        1 <0>         0.0000
      8 C8         -0.9677    0.6100    0.0000 CT        1 <0>         0.0000
      9 C9         -0.9677   -0.2150    0.0000 C         1 <0>         0.0000
     10 O1         -1.6822   -0.6275    0.0000 OH        1 <0>         0.0000
     11 O2         -0.2533   -0.6275    0.0000 O         1 <0>         0.0000
     12 O3         -0.2533    1.0225    0.0000 OS        1 <0>         0.0000
     13 C10         0.4612    0.6100    0.0000 CA        1 <0>         0.0000
     14 C11         1.1757    1.0225    0.0000 CA        1 <0>         0.0000
     15 C12         1.8902    0.6100    0.0000 CA        1 <0>         0.0000
     16 C13         0.4612   -0.2150    0.0000 CA        1 <0>         0.0000
     17 C14         1.1757   -0.6275    0.0000 CA        1 <0>         0.0000
     18 C15         1.8902   -0.2150    0.0000 CP        1 <0>         0.0000
     19 C16         2.6046   -0.6275    0.0000 CP        1 <0>         0.0000
     20 C17         2.6046   -1.4525    0.0000 CA        1 <0>         0.0000
     21 C18         3.3191   -1.8650    0.0000 CA        1 <0>         0.0000
     22 C19         4.0336   -1.4525    0.0000 CA        1 <0>         0.0000
     23 C20         4.0336   -0.6275    0.0000 CA        1 <0>         0.0000
     24 C21         3.3191   -0.2150    0.0000 CA        1 <0>         0.0000
     25 H1         -1.4734    0.3180    0.0000 H1        1 <0>         0.0000
     26 H2         -3.1111    1.0225    0.0000 HA        1 <0>         0.0000
     27 H3         -3.8256    0.6100    0.0000 HA        1 <0>         0.0000
     28 H4         -3.8256   -0.2150    0.0000 HA        1 <0>         0.0000
     29 H5         -3.1111   -0.6275    0.0000 HA        1 <0>         0.0000
     30 H6         -2.3967   -0.2150    0.0000 HA        1 <0>         0.0000
     31 H7         -1.6822    1.0225    0.0000 HC        1 <0>         0.0000
     32 H8         -1.6822    1.0225    0.0000 HC        1 <0>         0.0000
     33 H9         -1.6822   -0.6275    0.0000 HO        1 <0>         0.0000
     34 H10         1.1757    1.0225    0.0000 HA        1 <0>         0.0000
     35 H11         1.8902    0.6100    0.0000 HA        1 <0>         0.0000
     36 H12         0.4612   -0.2150    0.0000 HA        1 <0>         0.0000
     37 H13         1.1757   -0.6275    0.0000 HA        1 <0>         0.0000
     38 H14         2.6046   -1.4525    0.0000 HA        1 <0>         0.0000
     39 H15         3.3191   -1.8650    0.0000 HA        1 <0>         0.0000
     40 H16         4.0336   -1.4525    0.0000 HA        1 <0>         0.0000
     41 H17         4.0336   -0.6275    0.0000 HA        1 <0>         0.0000
     42 H18         3.3191   -0.2150    0.0000 HA        1 <0>         0.0000
@<TRIPOS>BOND
     1    1    6 ar
     2    1    2 ar
     3    3    4 ar
     4    2    3 ar
     5    4    5 ar
     6    5    6 ar
     7    6    7 1
     8    7    8 1
     9    8    9 1
    10    8   25 1
    11    9   11 2
    12    9   10 1
    13   12   13 1
    14    8   12 1
    15   13   14 ar
    16   14   15 ar
    17   13   16 ar
    18   16   17 ar
    19   17   18 ar
    20   15   18 ar
    21   19   24 ar
    22   18   19 1
    23   19   20 ar
    24   21   22 ar
    25   20   21 ar
    26   22   23 ar
    27   23   24 ar
    28    1   26 1
    29    2   27 1
    30    3   28 1
    31    4   29 1
    32    5   30 1
    33    7   31 1
    34    7   32 1
    35   10   33 1
    36   14   34 1
    37   15   35 1
    38   16   36 1
    39   17   37 1
    40   20   38 1
    41   21   39 1
    42   22   40 1
    43   23   41 1
    44   24   42 1
@<TRIPOS>MOLECULE
LSR
   39    39     0     0     0
SMALL
NO_CHARGES

@<TRIPOS>ATOM
      1 C1          2.6083    1.1294    0.0000 CT        1 <0>         0.0000
      2 C2          1.8938    0.7169    0.0000 CM        1 <0>         0.0000
      3 C3          1.1793    1.1294    0.0000 CM        1 <0>         0.0000
      4 C4          1.1793    1.9544    0.0000 CT        1 <0>         0.0000
      5 C5          0.4649    0.7169    0.0000 CM        1 <0>         0.0000
      6 C6          0.4649   -0.1081    0.0000 CM        1 <0>         0.0000
      7 C7         -0.2496   -0.5206    0.0000 CM        1 <0>         0.0000
      8 C8         -0.2496   -1.3456    0.0000 CM        1 <0>         0.0000
      9 C9          0.4649   -1.7581    0.0000 CT        1 <0>         0.0000
     10 C10        -0.9641   -1.7581    0.0000 CT        1 <0>         0.0000
     11 C11        -1.6785   -1.3456    0.0000 CT        1 <0>         0.0000
     12 C12        -1.6785   -0.5206    0.0000 CT        1 <0>         0.0000
     13 C13        -0.9641   -0.1081    0.0000 CT        1 <0>         0.0000
     14 C14        -0.5768    0.6203    0.0000 CT        1 <0>         0.0000
     15 C15        -1.3514    0.6203    0.0000 CT        1 <0>         0.0000
     16 H1          2.6083    1.1294    0.0000 HC        1 <0>         0.0000
     17 H2          2.6083    1.1294    0.0000 HC        1 <0>         0.0000
     18 H3          2.6083    1.1294    0.0000 HC        1 <0>         0.0000
     19 H4          1.8938    0.7169    0.0000 HA        1 <0>         0.0000
     20 H5          1.1793    1.9544    0.0000 HC        1 <0>         0.0000
     21 H6          1.1793    1.9544    0.0000 HC        1 <0>         0.0000
     22 H7          1.1793    1.9544    0.0000 HC        1 <0>         0.0000
     23 H8          0.4649    0.7169    0.0000 HA        1 <0>         0.0000
     24 H9          0.4649   -0.1081    0.0000 HA        1 <0>         0.0000
     25 H10         0.4649   -1.7581    0.0000 HC        1 <0>         0.0000
     26 H11         0.4649   -1.7581    0.0000 HC        1 <0>         0.0000
     27 H12         0.4649   -1.7581    0.0000 HC        1 <0>         0.0000
     28 H13        -0.9641   -1.7581    0.0000 HC        1 <0>         0.0000
     29 H14        -0.9641   -1.7581    0.0000 HC        1 <0>         0.0000
     30 H15        -1.6785   -1.3456    0.0000 HC        1 <0>         0.0000
     31 H16        -1.6785   -1.3456    0.0000 HC        1 <0>         0.0000
     32 H17        -1.6785   -0.5206    0.0000 HC        1 <0>         0.0000
     33 H18        -1.6785   -0.5206    0.0000 HC        1 <0>         0.0000
     34 H19        -0.5768    0.6203    0.0000 HC        1 <0>         0.0000
     35 H20        -0.5768    0.6203    0.0000 HC        1 <0>         0.0000
     36 H21        -0.5768    0.6203    0.0000 HC        1 <0>         0.0000
     37 H22        -1.3514    0.6203    0.0000 HC        1 <0>         0.0000
     38 H23        -1.3514    0.6203    0.0000 HC        1 <0>         0.0000
     39 H24        -1.3514    0.6203    0.0000 HC        1 <0>         0.0000
@<TRIPOS>BOND
     1    1    2 1
     2    2    3 2
     3    3    4 1
     4    3    5 1
     5    5    6 2
     6    6    7 1
     7    7    8 2
     8    7   13 1
     9    8    9 1
    10    8   10 1
    11   10   11 1
    12   11   12 1
    13   12   13 1
    14   13   14 1
    15   13   15 1
    16    1   16 1
    17    1   17 1
    18    1   18 1
    19    2   19 1
    20    4   20 1
    21    4   21 1
    22    4   22 1
    23    5   23 1
    24    6   24 1
    25    9   25 1
    26    9   26 1
    27    9   27 1
    28   10   28 1
    29   10   29 1
    30   11   30 1
    31   11   31 1
    32   12   32 1
    33   12   33 1
    34   14   34 1
    35   14   35 1
    36   14   36 1
    37   15   37 1
    38   15   38 1
    39   15   39 1
@<TRIPOS>MOLECULE
MEI
   47    46     0     0     0
SMALL
NO_CHARGES

@<TRIPOS>ATOM
      1 C1         -3.4964   -0.8275    0.0000 CT        1 <0>         0.0000
      2 O1         -2.8728   -0.2874    0.0000 OS        1 <0>         0.0000
      3 C2         -2.0932   -0.5574    0.0000 CT        1 <0>         0.0000
      4 C3         -2.3633   -1.3370    0.0000 CT        1 <0>         0.0000
      5 C4         -1.8232    0.2221    0.0000 CT        1 <0>         0.0000
      6 C5         -1.3137   -0.8275    0.0000 CT        1 <0>         0.0000
      7 C6         -0.6900   -0.2874    0.0000 CT        1 <0>         0.0000
      8 C7          0.0895   -0.5574    0.0000 CT        1 <0>         0.0000
      9 C8          0.7132   -0.0173    0.0000 CT        1 <0>         0.0000
     10 C9          0.5573    0.7928    0.0000 CT        1 <0>         0.0000
     11 C10         1.4927   -0.2874    0.0000 CT        1 <0>         0.0000
     12 C11         2.1164    0.2527    0.0000 CM        1 <0>         0.0000
     13 C12         2.8959   -0.0173    0.0000 CM        1 <0>         0.0000
     14 C13         3.5196    0.5228    0.0000 CM        1 <0>         0.0000
     15 C14         3.3637    1.3329    0.0000 CT        1 <0>         0.0000
     16 C15         4.2991    0.2527    0.0000 CM        1 <0>         0.0000
     17 C16         4.9228    0.7928    0.0000 C         1 <0>         0.0000
     18 O2          4.7668    1.6029    0.0000 OH        1 <0>         0.0000
     19 O3          5.7023    0.5228    0.0000 O         1 <0>         0.0000
     20 H1          0.1614    0.1738    0.0000 HC        1 <0>         0.0000
     21 H2         -3.4964   -0.8275    0.0000 H1        1 <0>         0.0000
     22 H3         -3.4964   -0.8275    0.0000 H1        1 <0>         0.0000
     23 H4         -3.4964   -0.8275    0.0000 H1        1 <0>         0.0000
     24 H5         -2.3633   -1.3370    0.0000 HC        1 <0>         0.0000
     25 H6         -2.3633   -1.3370    0.0000 HC        1 <0>         0.0000
     26 H7         -2.3633   -1.3370    0.0000 HC        1 <0>         0.0000
     27 H8         -1.8232    0.2221    0.0000 HC        1 <0>         0.0000
     28 H9         -1.8232    0.2221    0.0000 HC        1 <0>         0.0000
     29 H10        -1.8232    0.2221    0.0000 HC        1 <0>         0.0000
     30 H11        -1.3137   -0.8275    0.0000 HC        1 <0>         0.0000
     31 H12        -1.3137   -0.8275    0.0000 HC        1 <0>         0.0000
     32 H13        -0.6900   -0.2874    0.0000 HC        1 <0>         0.0000
     33 H14        -0.6900   -0.2874    0.0000 HC        1 <0>         0.0000
     34 H15         0.0895   -0.5574    0.0000 HC        1 <0>         0.0000
     35 H16         0.0895   -0.5574    0.0000 HC        1 <0>         0.0000
     36 H17         0.5573    0.7928    0.0000 HC        1 <0>         0.0000
     37 H18         0.5573    0.7928    0.0000 HC        1 <0>         0.0000
     38 H19         0.5573    0.7928    0.0000 HC        1 <0>         0.0000
     39 H20         1.4927   -0.2874    0.0000 HC        1 <0>         0.0000
     40 H21         1.4927   -0.2874    0.0000 HC        1 <0>         0.0000
     41 H22         2.1164    0.2527    0.0000 HA        1 <0>         0.0000
     42 H23         2.8959   -0.0173    0.0000 HA        1 <0>         0.0000
     43 H24         3.3637    1.3329    0.0000 HC        1 <0>         0.0000
     44 H25         3.3637    1.3329    0.0000 HC        1 <0>         0.0000
     45 H26         3.3637    1.3329    0.0000 HC        1 <0>         0.0000
     46 H27         4.2991    0.2527    0.0000 HA        1 <0>         0.0000
     47 H28         4.7668    1.6029    0.0000 HO        1 <0>         0.0000
@<TRIPOS>BOND
     1    1    2 1
     2    2    3 1
     3    3    4 1
     4    3    5 1
     5    3    6 1
     6    6    7 1
     7    7    8 1
     8    8    9 1
     9    9   10 1
    10    9   11 1
    11    9   20 1
    12   11   12 1
    13   12   13 2
    14   13   14 1
    15   14   15 1
    16   14   16 2
    17   16   17 1
    18   17   18 1
    19   17   19 2
    20    1   21 1
    21    1   22 1
    22    1   23 1
    23    4   24 1
    24    4   25 1
    25    4   26 1
    26    5   27 1
    27    5   28 1
    28    5   29 1
    29    6   30 1
    30    6   31 1
    31    7   32 1
    32    7   33 1
    33    8   34 1
    34    8   35 1
    35   10   36 1
    36   10   37 1
    37   10   38 1
    38   11   39 1
    39   11   40 1
    40   12   41 1
    41   13   42 1
    42   15   43 1
    43   15   44 1
    44   15   45 1
    45   16   46 1
    46   18   47 1
@<TRIPOS>MOLECULE
MGI
   38    39     0     0     0
SMALL
NO_CHARGES

@<TRIPOS>ATOM
      1 O1         -1.4967    2.8025    0.0000 O         1 <0>         0.0000
      2 C1         -0.7822    2.3900    0.0000 C         1 <0>         0.0000
      3 O2         -0.0677    2.8025    0.0000 OS        1 <0>         0.0000
      4 C2         -0.0677    3.6275    0.0000 CT        1 <0>         0.0000
      5 C3         -0.7822    1.5650    0.0000 CA        1 <0>         0.0000
      6 C4         -1.4967    1.1525    0.0000 CA        1 <0>         0.0000
      7 O3         -2.2111    1.5650    0.0000 OH        1 <0>         0.0000
      8 C5         -1.4967    0.3275    0.0000 CA        1 <0>         0.0000
      9 C6         -0.0677    1.1525    0.0000 CA        1 <0>         0.0000
     10 C7          0.6467    1.5650    0.0000 CT        1 <0>         0.0000
     11 C8         -0.0677    0.3275    0.0000 CA        1 <0>         0.0000
     12 C9         -0.7822   -0.0850    0.0000 CA        1 <0>         0.0000
     13 O4         -0.7822   -0.9100    0.0000 OS        1 <0>         0.0000
     14 C10        -0.0677   -1.3225    0.0000 CA        1 <0>         0.0000
     15 C11         0.6467   -0.9100    0.0000 CA        1 <0>         0.0000
     16 C12        -0.0677   -2.1475    0.0000 CA        1 <0>         0.0000
     17 O5         -0.7822   -2.5600    0.0000 OH        1 <0>         0.0000
     18 C13         0.6467   -2.5600    0.0000 CA        1 <0>         0.0000
     19 O6          0.6467   -3.3850    0.0000 OH        1 <0>         0.0000
     20 C14         1.3612   -2.1475    0.0000 CA        1 <0>         0.0000
     21 C15         1.3612   -1.3225    0.0000 CA        1 <0>         0.0000
     22 C16         2.0757   -0.9100    0.0000 CT        1 <0>         0.0000
     23 H1         -0.0677    3.6275    0.0000 H1        1 <0>         0.0000
     24 H2         -0.0677    3.6275    0.0000 H1        1 <0>         0.0000
     25 H3         -0.0677    3.6275    0.0000 H1        1 <0>         0.0000
     26 H4         -2.2111    1.5650    0.0000 HO        1 <0>         0.0000
     27 H5         -1.4967    0.3275    0.0000 HA        1 <0>         0.0000
     28 H6          0.6467    1.5650    0.0000 HC        1 <0>         0.0000
     29 H7          0.6467    1.5650    0.0000 HC        1 <0>         0.0000
     30 H8          0.6467    1.5650    0.0000 HC        1 <0>         0.0000
     31 H9         -0.0677    0.3275    0.0000 HA        1 <0>         0.0000
     32 H10         0.6467   -0.9100    0.0000 HA        1 <0>         0.0000
     33 H11        -0.7822   -2.5600    0.0000 HO        1 <0>         0.0000
     34 H12         0.6467   -3.3850    0.0000 HO        1 <0>         0.0000
     35 H13         1.3612   -2.1475    0.0000 HA        1 <0>         0.0000
     36 H14         2.0757   -0.9100    0.0000 HC        1 <0>         0.0000
     37 H15         2.0757   -0.9100    0.0000 HC        1 <0>         0.0000
     38 H16         2.0757   -0.9100    0.0000 HC        1 <0>         0.0000
@<TRIPOS>BOND
     1    1    2 2
     2    2    3 1
     3    2    5 1
     4    3    4 1
     5    5    9 ar
     6    5    6 ar
     7    6    8 ar
     8    6    7 1
     9    8   12 ar
    10    9   10 1
    11    9   11 ar
    12   11   12 ar
    13   12   13 1
    14   13   14 1
    15   14   15 ar
    16   14   16 ar
    17   15   21 ar
    18   16   18 ar
    19   16   17 1
    20   18   20 ar
    21   18   19 1
    22   20   21 ar
    23   21   22 1
    24    4   23 1
    25    4   24 1
    26    4   25 1
    27    7   26 1
    28    8   27 1
    29   10   28 1
    30   10   29 1
    31   10   30 1
    32   11   31 1
    33   15   32 1
    34   17   33 1
    35   19   34 1
    36   20   35 1
    37   22   36 1
    38   22   37 1
    39   22   38 1
@<TRIPOS>MOLECULE
MUF
   63    67     0     0     0
SMALL
NO_CHARGES

@<TRIPOS>ATOM
      1 C1          1.9086    0.0647    0.0000 CT        1 <0>         0.0000
      2 C2          2.7207   -0.0805    0.0000 CT        1 <0>         0.0000
      3 C3          3.0010   -0.8564    0.0000 CM        1 <0>         0.0000
      4 C4          2.4692   -1.4872    0.0000 CM        1 <0>         0.0000
      5 C5          1.6571   -1.3419    0.0000 CM        1 <0>         0.0000
      6 C6          1.1252   -1.9727    0.0000 CM        1 <0>         0.0000
      7 C7          0.3131   -1.8274    0.0000 CT        1 <0>         0.0000
      8 C8          0.0328   -1.0515    0.0000 CT        1 <0>         0.0000
      9 C9          0.5646   -0.4208    0.0000 CT        1 <0>         0.0000
     10 C10         1.3768   -0.5660    0.0000 CT        1 <0>         0.0000
     11 C11         0.2843    0.3551    0.0000 CT        1 <0>         0.0000
     12 C12        -0.5278    0.5003    0.0000 CT        1 <0>         0.0000
     13 C13        -1.0596   -0.1304    0.0000 CT        1 <0>         0.0000
     14 C14        -0.7793   -0.9063    0.0000 CT        1 <0>         0.0000
     15 C15        -1.4306   -1.4127    0.0000 CT        1 <0>         0.0000
     16 C16        -2.1135   -0.9497    0.0000 CT        1 <0>         0.0000
     17 C17        -1.8842   -0.1572    0.0000 CT        1 <0>         0.0000
     18 C18        -1.4195    0.6120    0.0000 CT        1 <0>         0.0000
     19 C19         1.0965    0.2099    0.0000 CT        1 <0>         0.0000
     20 C20        -2.3905    0.4941    0.0000 C         1 <0>         0.0000
     21 O1         -3.2078    0.3813    0.0000 O         1 <0>         0.0000
     22 C21         3.8131   -1.0017    0.0000 C         1 <0>         0.0000
     23 O2          4.0934   -1.7776    0.0000 O         1 <0>         0.0000
     24 O3          4.3449   -0.3710    0.0000 OH        1 <0>         0.0000
     25 C22        -2.0796    1.2583    0.0000 CA        1 <0>         0.0000
     26 C23        -2.5860    1.9097    0.0000 CA        1 <0>         0.0000
     27 C24        -2.2751    2.6738    0.0000 CA        1 <0>         0.0000
     28 C25        -1.4578    2.7867    0.0000 CA        1 <0>         0.0000
     29 C26        -0.9515    2.1354    0.0000 CA        1 <0>         0.0000
     30 C27        -1.2624    1.3712    0.0000 CA        1 <0>         0.0000
     31 O4         -1.1469    3.5509    0.0000 OH        1 <0>         0.0000
     32 H1         -0.3436   -1.4979    0.0000 HC        1 <0>         0.0000
     33 H2          0.7657    0.1274    0.0000 HC        1 <0>         0.0000
     34 H3         -0.6394   -1.4732    0.0000 HC        1 <0>         0.0000
     35 H4         -1.6361    0.3714    0.0000 HC        1 <0>         0.0000
     36 H5          1.9086    0.0647    0.0000 HC        1 <0>         0.0000
     37 H6          1.9086    0.0647    0.0000 HC        1 <0>         0.0000
     38 H7          2.7207   -0.0805    0.0000 HC        1 <0>         0.0000
     39 H8          2.7207   -0.0805    0.0000 HC        1 <0>         0.0000
     40 H9          2.4692   -1.4872    0.0000 HA        1 <0>         0.0000
     41 H10         1.1252   -1.9727    0.0000 HA        1 <0>         0.0000
     42 H11         0.3131   -1.8274    0.0000 HC        1 <0>         0.0000
     43 H12         0.3131   -1.8274    0.0000 HC        1 <0>         0.0000
     44 H13         0.2843    0.3551    0.0000 HC        1 <0>         0.0000
     45 H14         0.2843    0.3551    0.0000 HC        1 <0>         0.0000
     46 H15        -0.5278    0.5003    0.0000 HC        1 <0>         0.0000
     47 H16        -0.5278    0.5003    0.0000 HC        1 <0>         0.0000
     48 H17        -1.4306   -1.4127    0.0000 HC        1 <0>         0.0000
     49 H18        -1.4306   -1.4127    0.0000 HC        1 <0>         0.0000
     50 H19        -2.1135   -0.9497    0.0000 HC        1 <0>         0.0000
     51 H20        -2.1135   -0.9497    0.0000 HC        1 <0>         0.0000
     52 H21        -1.4195    0.6120    0.0000 HC        1 <0>         0.0000
     53 H22        -1.4195    0.6120    0.0000 HC        1 <0>         0.0000
     54 H23        -1.4195    0.6120    0.0000 HC        1 <0>         0.0000
     55 H24         1.0965    0.2099    0.0000 HC        1 <0>         0.0000
     56 H25         1.0965    0.2099    0.0000 HC        1 <0>         0.0000
     57 H26         1.0965    0.2099    0.0000 HC        1 <0>         0.0000
     58 H27         4.3449   -0.3710    0.0000 HO        1 <0>         0.0000
     59 H28        -2.5860    1.9097    0.0000 HA        1 <0>         0.0000
     60 H29        -2.2751    2.6738    0.0000 HA        1 <0>         0.0000
     61 H30        -0.9515    2.1354    0.0000 HA        1 <0>         0.0000
     62 H31        -1.2624    1.3712    0.0000 HA        1 <0>         0.0000
     63 H32        -1.1469    3.5509    0.0000 HO        1 <0>         0.0000
@<TRIPOS>BOND
     1    1    2 1
     2    2    3 1
     3    3    4 2
     4    3   22 1
     5    4    5 1
     6    5    6 2
     7    6    7 1
     8    7    8 1
     9    8   32 1
    10    8    9 1
    11    9   10 1
    12    9   33 1
    13    1   10 1
    14    5   10 1
    15    9   11 1
    16   11   12 1
    17   12   13 1
    18   13   14 1
    19    8   14 1
    20   14   15 1
    21   14   34 1
    22   15   16 1
    23   13   17 1
    24   16   17 1
    25   17   35 1
    26   13   18 1
    27   10   19 1
    28   17   20 1
    29   20   21 2
    30   22   24 1
    31   22   23 2
    32   20   25 1
    33   25   26 ar
    34   26   27 ar
    35   27   28 ar
    36   28   29 ar
    37   29   30 ar
    38   25   30 ar
    39   28   31 1
    40    1   36 1
    41    1   37 1
    42    2   38 1
    43    2   39 1
    44    4   40 1
    45    6   41 1
    46    7   42 1
    47    7   43 1
    48   11   44 1
    49   11   45 1
    50   12   46 1
    51   12   47 1
    52   15   48 1
    53   15   49 1
    54   16   50 1
    55   16   51 1
    56   18   52 1
    57   18   53 1
    58   18   54 1
    59   19   55 1
    60   19   56 1
    61   19   57 1
    62   24   58 1
    63   26   59 1
    64   27   60 1
    65   29   61 1
    66   30   62 1
    67   31   63 1
@<TRIPOS>MOLECULE
MVB
   48    50     0     0     0
SMALL
NO_CHARGES

@<TRIPOS>ATOM
      1 O1         -1.9420    3.0097    0.0000 OH        1 <0>         0.0000
      2 C1          0.2014    2.5972    0.0000 C         1 <0>         0.0000
      3 O2          0.9159    3.0097    0.0000 O         1 <0>         0.0000
      4 O3          0.2014    1.7722    0.0000 OS        1 <0>         0.0000
      5 O4          1.6303    0.1222    0.0000 OH        1 <0>         0.0000
      6 C2         -0.5131    1.3597    0.0000 CT        1 <0>         0.0000
      7 C3         -1.2275    1.7722    0.0000 CT        1 <0>         0.0000
      8 C4         -1.2275    2.5972    0.0000 CT        1 <0>         0.0000
      9 C5         -0.5131    3.0097    0.0000 CT        1 <0>         0.0000
     10 C6         -1.2275   -0.7028    0.0000 CT        1 <0>         0.0000
     11 C7         -0.5131    0.5347    0.0000 CT        1 <0>         0.0000
     12 C8          0.2014    0.1222    0.0000 CT        1 <0>         0.0000
     13 C9          0.2014   -0.7028    0.0000 CT        1 <0>         0.0000
     14 C10        -0.5131   -1.1153    0.0000 CT        1 <0>         0.0000
     15 C11        -0.5131   -1.9403    0.0000 CM        1 <0>         0.0000
     16 C12         0.2014   -2.3528    0.0000 CM        1 <0>         0.0000
     17 C13         0.9159   -1.9403    0.0000 CM        1 <0>         0.0000
     18 C14         0.9159   -1.1153    0.0000 CT        1 <0>         0.0000
     19 C15         1.6303   -0.7028    0.0000 CT        1 <0>         0.0000
     20 C16         2.3448   -1.1153    0.0000 CT        1 <0>         0.0000
     21 C17         2.3448   -1.9403    0.0000 CT        1 <0>         0.0000
     22 C18         1.6303   -2.3528    0.0000 CM        1 <0>         0.0000
     23 H1         -0.0074    1.0677    0.0000 H1        1 <0>         0.0000
     24 H2         -1.7332    2.3052    0.0000 H1        1 <0>         0.0000
     25 H3         -0.3737   -0.6014    0.0000 HC        1 <0>         0.0000
     26 H4         -0.7128   -0.5666    0.0000 HC        1 <0>         0.0000
     27 H5          0.7162   -0.5666    0.0000 HC        1 <0>         0.0000
     28 H6          1.2550   -0.2555    0.0000 H1        1 <0>         0.0000
     29 H7         -1.9420    3.0097    0.0000 HO        1 <0>         0.0000
     30 H8          1.6303    0.1222    0.0000 HO        1 <0>         0.0000
     31 H9         -1.2275    1.7722    0.0000 HC        1 <0>         0.0000
     32 H10        -1.2275    1.7722    0.0000 HC        1 <0>         0.0000
     33 H11        -0.5131    3.0097    0.0000 HC        1 <0>         0.0000
     34 H12        -0.5131    3.0097    0.0000 HC        1 <0>         0.0000
     35 H13        -1.2275   -0.7028    0.0000 HC        1 <0>         0.0000
     36 H14        -1.2275   -0.7028    0.0000 HC        1 <0>         0.0000
     37 H15        -1.2275   -0.7028    0.0000 HC        1 <0>         0.0000
     38 H16        -0.5131    0.5347    0.0000 HC        1 <0>         0.0000
     39 H17        -0.5131    0.5347    0.0000 HC        1 <0>         0.0000
     40 H18         0.2014    0.1222    0.0000 HC        1 <0>         0.0000
     41 H19         0.2014    0.1222    0.0000 HC        1 <0>         0.0000
     42 H20        -0.5131   -1.9403    0.0000 HA        1 <0>         0.0000
     43 H21         0.2014   -2.3528    0.0000 HA        1 <0>         0.0000
     44 H22         2.3448   -1.1153    0.0000 HC        1 <0>         0.0000
     45 H23         2.3448   -1.1153    0.0000 HC        1 <0>         0.0000
     46 H24         2.3448   -1.9403    0.0000 HC        1 <0>         0.0000
     47 H25         2.3448   -1.9403    0.0000 HC        1 <0>         0.0000
     48 H26         1.6303   -2.3528    0.0000 HA        1 <0>         0.0000
@<TRIPOS>BOND
     1    1    8 1
     2    2    3 2
     3    2    4 1
     4    2    9 1
     5    4    6 1
     6    5   19 1
     7    6    7 1
     8    6   11 1
     9    6   23 1
    10    7    8 1
    11    8    9 1
    12    8   24 1
    13   10   14 1
    14   11   12 1
    15   12   13 1
    16   13   14 1
    17   13   18 1
    18   13   25 1
    19   14   15 1
    20   14   26 1
    21   15   16 2
    22   16   17 1
    23   17   18 1
    24   17   22 2
    25   18   19 1
    26   18   27 1
    27   19   20 1
    28   19   28 1
    29   20   21 1
    30   21   22 1
    31    1   29 1
    32    5   30 1
    33    7   31 1
    34    7   32 1
    35    9   33 1
    36    9   34 1
    37   10   35 1
    38   10   36 1
    39   10   37 1
    40   11   38 1
    41   11   39 1
    42   12   40 1
    43   12   41 1
    44   15   42 1
    45   16   43 1
    46   20   44 1
    47   20   45 1
    48   21   46 1
    49   21   47 1
    50   22   48 1
@<TRIPOS>MOLECULE
MYF
   32    34     0     0     0
SMALL
NO_CHARGES

@<TRIPOS>ATOM
      1 O1          1.8691    4.6530    0.0000 O         1 <0>         0.0000
      2 C1          1.8691    3.8280    0.0000 C         1 <0>         0.0000
      3 C2          2.5835    3.4155    0.0000 CB        1 <0>         0.0000
      4 C3          3.2980    3.8280    0.0000 CA        1 <0>         0.0000
      5 O2          3.2980    4.6530    0.0000 OH        1 <0>         0.0000
      6 C4          4.0125    3.4155    0.0000 CA        1 <0>         0.0000
      7 C5          4.0125    2.5905    0.0000 CA        1 <0>         0.0000
      8 O3          4.7270    2.1780    0.0000 OH        1 <0>         0.0000
      9 C6          2.5835    2.5905    0.0000 CB        1 <0>         0.0000
     10 C7          3.2980    2.1780    0.0000 CA        1 <0>         0.0000
     11 O4          1.8691    2.1780    0.0000 OS        1 <0>         0.0000
     12 C8          1.1546    2.5905    0.0000 CP        1 <0>         0.0000
     13 C9          1.1546    3.4155    0.0000 CA        1 <0>         0.0000
     14 C10         0.4401    2.1780    0.0000 CP        1 <0>         0.0000
     15 C11         0.4401    1.3530    0.0000 CA        1 <0>         0.0000
     16 C12        -0.2743    0.9405    0.0000 CA        1 <0>         0.0000
     17 O5         -0.2743    0.1155    0.0000 OH        1 <0>         0.0000
     18 C13        -0.9888    1.3530    0.0000 CA        1 <0>         0.0000
     19 O6         -1.7033    0.9405    0.0000 OH        1 <0>         0.0000
     20 C14        -0.9888    2.1780    0.0000 CA        1 <0>         0.0000
     21 C15        -0.2743    2.5905    0.0000 CA        1 <0>         0.0000
     22 O7         -1.7033    2.5905    0.0000 OH        1 <0>         0.0000
     23 H1          3.2980    4.6530    0.0000 HO        1 <0>         0.0000
     24 H2          4.0125    3.4155    0.0000 HA        1 <0>         0.0000
     25 H3          4.7270    2.1780    0.0000 HO        1 <0>         0.0000
     26 H4          3.2980    2.1780    0.0000 HA        1 <0>         0.0000
     27 H5          1.1546    3.4155    0.0000 HA        1 <0>         0.0000
     28 H6          0.4401    1.3530    0.0000 HA        1 <0>         0.0000
     29 H7         -0.2743    0.1155    0.0000 HO        1 <0>         0.0000
     30 H8         -1.7033    0.9405    0.0000 HO        1 <0>         0.0000
     31 H9         -0.2743    2.5905    0.0000 HA        1 <0>         0.0000
     32 H10        -1.7033    2.5905    0.0000 HO        1 <0>         0.0000
@<TRIPOS>BOND
     1    1    2 2
     2    2    3 1
     3    2   13 1
     4    3    4 ar
     5    3    9 ar
     6    4    5 1
     7    4    6 ar
     8    6    7 ar
     9    7    8 1
    10    7   10 ar
    11    9   10 ar
    12    9   11 1
    13   11   12 1
    14   12   13 2
    15   12   14 1
    16   14   15 ar
    17   14   21 ar
    18   15   16 ar
    19   16   17 1
    20   16   18 ar
    21   18   20 ar
    22   18   19 1
    23   20   21 ar
    24   20   22 1
    25    5   23 1
    26    6   24 1
    27    8   25 1
    28   10   26 1
    29   13   27 1
    30   15   28 1
    31   17   29 1
    32   19   30 1
    33   21   31 1
    34   22   32 1
@<TRIPOS>MOLECULE
Myristic acid.mol
   44    43     0     0     0
SMALL
NO_CHARGES

@<TRIPOS>ATOM
      1 C1          3.9296    0.4125    0.0000 C         1 <0>         0.0000
      2 C2          3.9296   -0.4125    0.0000 CT        1 <0>         0.0000
      3 C3          3.2151   -0.8250    0.0000 CT        1 <0>         0.0000
      4 C4          2.5006   -0.4125    0.0000 CT        1 <0>         0.0000
      5 C5          1.7862   -0.8250    0.0000 CT        1 <0>         0.0000
      6 C6          1.0717   -0.4125    0.0000 CT        1 <0>         0.0000
      7 C7          0.3572   -0.8250    0.0000 CT        1 <0>         0.0000
      8 C8         -0.3572   -0.4125    0.0000 CT        1 <0>         0.0000
      9 C9         -1.0717   -0.8250    0.0000 CT        1 <0>         0.0000
     10 C10        -1.7862   -0.4125    0.0000 CT        1 <0>         0.0000
     11 C11        -2.5006   -0.8250    0.0000 CT        1 <0>         0.0000
     12 C12        -3.2151   -0.4125    0.0000 CT        1 <0>         0.0000
     13 C13        -3.9296   -0.8250    0.0000 CT        1 <0>         0.0000
     14 C14        -4.6441   -0.4125    0.0000 CT        1 <0>         0.0000
     15 O1          3.2151    0.8250    0.0000 O         1 <0>         0.0000
     16 O2          4.6441    0.8250    0.0000 OH        1 <0>         0.0000
     17 H1          3.9296   -0.4125    0.0000 HC        1 <0>         0.0000
     18 H2          3.9296   -0.4125    0.0000 HC        1 <0>         0.0000
     19 H3          3.2151   -0.8250    0.0000 HC        1 <0>         0.0000
     20 H4          3.2151   -0.8250    0.0000 HC        1 <0>         0.0000
     21 H5          2.5006   -0.4125    0.0000 HC        1 <0>         0.0000
     22 H6          2.5006   -0.4125    0.0000 HC        1 <0>         0.0000
     23 H7          1.7862   -0.8250    0.0000 HC        1 <0>         0.0000
     24 H8          1.7862   -0.8250    0.0000 HC        1 <0>         0.0000
     25 H9          1.0717   -0.4125    0.0000 HC        1 <0>         0.0000
     26 H10         1.0717   -0.4125    0.0000 HC        1 <0>         0.0000
     27 H11         0.3572   -0.8250    0.0000 HC        1 <0>         0.0000
     28 H12         0.3572   -0.8250    0.0000 HC        1 <0>         0.0000
     29 H13        -0.3572   -0.4125    0.0000 HC        1 <0>         0.0000
     30 H14        -0.3572   -0.4125    0.0000 HC        1 <0>         0.0000
     31 H15        -1.0717   -0.8250    0.0000 HC        1 <0>         0.0000
     32 H16        -1.0717   -0.8250    0.0000 HC        1 <0>         0.0000
     33 H17        -1.7862   -0.4125    0.0000 HC        1 <0>         0.0000
     34 H18        -1.7862   -0.4125    0.0000 HC        1 <0>         0.0000
     35 H19        -2.5006   -0.8250    0.0000 HC        1 <0>         0.0000
     36 H20        -2.5006   -0.8250    0.0000 HC        1 <0>         0.0000
     37 H21        -3.2151   -0.4125    0.0000 HC        1 <0>         0.0000
     38 H22        -3.2151   -0.4125    0.0000 HC        1 <0>         0.0000
     39 H23        -3.9296   -0.8250    0.0000 HC        1 <0>         0.0000
     40 H24        -3.9296   -0.8250    0.0000 HC        1 <0>         0.0000
     41 H25        -4.6441   -0.4125    0.0000 HC        1 <0>         0.0000
     42 H26        -4.6441   -0.4125    0.0000 HC        1 <0>         0.0000
     43 H27        -4.6441   -0.4125    0.0000 HC        1 <0>         0.0000
     44 H28         4.6441    0.8250    0.0000 HO        1 <0>         0.0000
@<TRIPOS>BOND
     1    1    2 1
     2    2    3 1
     3    3    4 1
     4    4    5 1
     5    5    6 1
     6    6    7 1
     7    7    8 1
     8    8    9 1
     9    9   10 1
    10   10   11 1
    11   11   12 1
    12   12   13 1
    13   13   14 1
    14    1   15 2
    15    1   16 1
    16    2   17 1
    17    2   18 1
    18    3   19 1
    19    3   20 1
    20    4   21 1
    21    4   22 1
    22    5   23 1
    23    5   24 1
    24    6   25 1
    25    6   26 1
    26    7   27 1
    27    7   28 1
    28    8   29 1
    29    8   30 1
    30    9   31 1
    31    9   32 1
    32   10   33 1
    33   10   34 1
    34   11   35 1
    35   11   36 1
    36   12   37 1
    37   12   38 1
    38   13   39 1
    39   13   40 1
    40   14   41 1
    41   14   42 1
    42   14   43 1
    43   16   44 1
@<TRIPOS>MOLECULE
N8E
   62    61     0     0     0
SMALL
NO_CHARGES

@<TRIPOS>ATOM
      1 C1         -7.7137   -0.1846    0.0000 CT        1 <0>         0.0000
      2 C2         -6.9992    0.2279    0.0000 CT        1 <0>         0.0000
      3 C3         -6.2847   -0.1846    0.0000 CT        1 <0>         0.0000
      4 C4         -5.5701    0.2279    0.0000 CT        1 <0>         0.0000
      5 C5         -4.8556   -0.1846    0.0000 CT        1 <0>         0.0000
      6 C6         -4.1411    0.2279    0.0000 CT        1 <0>         0.0000
      7 C7         -3.4266   -0.1846    0.0000 CT        1 <0>         0.0000
      8 C8         -2.7120    0.2279    0.0000 CT        1 <0>         0.0000
      9 O1         -1.9975   -0.1846    0.0000 OS        1 <0>         0.0000
     10 C9         -1.2830    0.2279    0.0000 CT        1 <0>         0.0000
     11 C10        -0.5684   -0.1846    0.0000 CT        1 <0>         0.0000
     12 O2          0.1461    0.2279    0.0000 OS        1 <0>         0.0000
     13 C11         0.8606   -0.1846    0.0000 CT        1 <0>         0.0000
     14 C12         1.5751    0.2279    0.0000 CT        1 <0>         0.0000
     15 O3          2.2897   -0.1846    0.0000 OS        1 <0>         0.0000
     16 C13         3.0041    0.2279    0.0000 CT        1 <0>         0.0000
     17 C14         3.7187   -0.1846    0.0000 CT        1 <0>         0.0000
     18 O4          4.4332    0.2279    0.0000 OS        1 <0>         0.0000
     19 C15         5.1477   -0.1846    0.0000 CT        1 <0>         0.0000
     20 C16         5.8622    0.2279    0.0000 CT        1 <0>         0.0000
     21 O5          6.5768   -0.1846    0.0000 OS        1 <0>         0.0000
     22 C17         7.2913    0.2279    0.0000 CT        1 <0>         0.0000
     23 C18         8.0058   -0.1846    0.0000 CT        1 <0>         0.0000
     24 O6          8.7203    0.2279    0.0000 OH        1 <0>         0.0000
     25 H1         -7.7137   -0.1846    0.0000 HC        1 <0>         0.0000
     26 H2         -7.7137   -0.1846    0.0000 HC        1 <0>         0.0000
     27 H3         -7.7137   -0.1846    0.0000 HC        1 <0>         0.0000
     28 H4         -6.9992    0.2279    0.0000 HC        1 <0>         0.0000
     29 H5         -6.9992    0.2279    0.0000 HC        1 <0>         0.0000
     30 H6         -6.2847   -0.1846    0.0000 HC        1 <0>         0.0000
     31 H7         -6.2847   -0.1846    0.0000 HC        1 <0>         0.0000
     32 H8         -5.5701    0.2279    0.0000 HC        1 <0>         0.0000
     33 H9         -5.5701    0.2279    0.0000 HC        1 <0>         0.0000
     34 H10        -4.8556   -0.1846    0.0000 HC        1 <0>         0.0000
     35 H11        -4.8556   -0.1846    0.0000 HC        1 <0>         0.0000
     36 H12        -4.1411    0.2279    0.0000 HC        1 <0>         0.0000
     37 H13        -4.1411    0.2279    0.0000 HC        1 <0>         0.0000
     38 H14        -3.4266   -0.1846    0.0000 HC        1 <0>         0.0000
     39 H15        -3.4266   -0.1846    0.0000 HC        1 <0>         0.0000
     40 H16        -2.7120    0.2279    0.0000 H1        1 <0>         0.0000
     41 H17        -2.7120    0.2279    0.0000 H1        1 <0>         0.0000
     42 H18        -1.2830    0.2279    0.0000 H1        1 <0>         0.0000
     43 H19        -1.2830    0.2279    0.0000 H1        1 <0>         0.0000
     44 H20        -0.5684   -0.1846    0.0000 H1        1 <0>         0.0000
     45 H21        -0.5684   -0.1846    0.0000 H1        1 <0>         0.0000
     46 H22         0.8606   -0.1846    0.0000 H1        1 <0>         0.0000
     47 H23         0.8606   -0.1846    0.0000 H1        1 <0>         0.0000
     48 H24         1.5751    0.2279    0.0000 H1        1 <0>         0.0000
     49 H25         1.5751    0.2279    0.0000 H1        1 <0>         0.0000
     50 H26         3.0041    0.2279    0.0000 H1        1 <0>         0.0000
     51 H27         3.0041    0.2279    0.0000 H1        1 <0>         0.0000
     52 H28         3.7187   -0.1846    0.0000 H1        1 <0>         0.0000
     53 H29         3.7187   -0.1846    0.0000 H1        1 <0>         0.0000
     54 H30         5.1477   -0.1846    0.0000 H1        1 <0>         0.0000
     55 H31         5.1477   -0.1846    0.0000 H1        1 <0>         0.0000
     56 H32         5.8622    0.2279    0.0000 H1        1 <0>         0.0000
     57 H33         5.8622    0.2279    0.0000 H1        1 <0>         0.0000
     58 H34         7.2913    0.2279    0.0000 H1        1 <0>         0.0000
     59 H35         7.2913    0.2279    0.0000 H1        1 <0>         0.0000
     60 H36         8.0058   -0.1846    0.0000 H1        1 <0>         0.0000
     61 H37         8.0058   -0.1846    0.0000 H1        1 <0>         0.0000
     62 H38         8.7203    0.2279    0.0000 HO        1 <0>         0.0000
@<TRIPOS>BOND
     1    1    2 1
     2    2    3 1
     3    3    4 1
     4    4    5 1
     5    5    6 1
     6    6    7 1
     7    7    8 1
     8    8    9 1
     9    9   10 1
    10   10   11 1
    11   11   12 1
    12   12   13 1
    13   13   14 1
    14   14   15 1
    15   15   16 1
    16   16   17 1
    17   17   18 1
    18   18   19 1
    19   19   20 1
    20   20   21 1
    21   21   22 1
    22   22   23 1
    23   23   24 1
    24    1   25 1
    25    1   26 1
    26    1   27 1
    27    2   28 1
    28    2   29 1
    29    3   30 1
    30    3   31 1
    31    4   32 1
    32    4   33 1
    33    5   34 1
    34    5   35 1
    35    6   36 1
    36    6   37 1
    37    7   38 1
    38    7   39 1
    39    8   40 1
    40    8   41 1
    41   10   42 1
    42   10   43 1
    43   11   44 1
    44   11   45 1
    45   13   46 1
    46   13   47 1
    47   14   48 1
    48   14   49 1
    49   16   50 1
    50   16   51 1
    51   17   52 1
    52   17   53 1
    53   19   54 1
    54   19   55 1
    55   20   56 1
    56   20   57 1
    57   22   58 1
    58   22   59 1
    59   23   60 1
    60   23   61 1
    61   24   62 1
@<TRIPOS>MOLECULE
NCZ
   42    44     0     0     0
SMALL
NO_CHARGES

@<TRIPOS>ATOM
      1 C1         -0.8834    0.5450    0.0000 CA        1 <0>         0.0000
      2 C2         -0.1689    0.9575    0.0000 CB        1 <0>         0.0000
      3 C3         -0.1689    1.7825    0.0000 CB        1 <0>         0.0000
      4 C4          0.5455    2.1950    0.0000 CA        1 <0>         0.0000
      5 C5          1.2600    1.7825    0.0000 CA        1 <0>         0.0000
      6 C6          1.2600    0.9575    0.0000 CA        1 <0>         0.0000
      7 C7          0.5455    0.5450    0.0000 CA        1 <0>         0.0000
      8 C8          0.5455   -0.2800    0.0000 C         1 <0>         0.0000
      9 O1         -0.1689   -0.6925    0.0000 O         1 <0>         0.0000
     10 O2          1.2600   -0.6925    0.0000 OS        1 <0>         0.0000
     11 C9          1.2600   -1.5175    0.0000 CT        1 <0>         0.0000
     12 C10         1.9274   -2.0024    0.0000 CT        1 <0>         0.0000
     13 C11         1.6725   -2.7870    0.0000 CM        1 <0>         0.0000
     14 C12         0.8475   -2.7870    0.0000 CM        1 <0>         0.0000
     15 C13         0.5926   -2.0024    0.0000 CT        1 <0>         0.0000
     16 O3         -0.1921   -1.7475    0.0000 OH        1 <0>         0.0000
     17 O4          2.7121   -1.7475    0.0000 OH        1 <0>         0.0000
     18 O5          1.9745    0.5450    0.0000 OH        1 <0>         0.0000
     19 C14        -0.8834    2.1950    0.0000 CA        1 <0>         0.0000
     20 C15        -1.5979    1.7825    0.0000 CA        1 <0>         0.0000
     21 C16        -1.5979    0.9575    0.0000 CA        1 <0>         0.0000
     22 O6         -2.3123    0.5450    0.0000 OS        1 <0>         0.0000
     23 C17        -2.3123   -0.2800    0.0000 CT        1 <0>         0.0000
     24 C18        -0.8834    3.0200    0.0000 CT        1 <0>         0.0000
     25 H1          1.7803   -1.2524    0.0000 H1        1 <0>         0.0000
     26 H2          2.0188   -1.4257    0.0000 H1        1 <0>         0.0000
     27 H3          0.5012   -1.4257    0.0000 H1        1 <0>         0.0000
     28 H4         -0.8834    0.5450    0.0000 HA        1 <0>         0.0000
     29 H5          0.5455    2.1950    0.0000 HA        1 <0>         0.0000
     30 H6          1.2600    1.7825    0.0000 HA        1 <0>         0.0000
     31 H7          1.6725   -2.7870    0.0000 HA        1 <0>         0.0000
     32 H8          0.8475   -2.7870    0.0000 HA        1 <0>         0.0000
     33 H9         -0.1921   -1.7475    0.0000 HO        1 <0>         0.0000
     34 H10         2.7121   -1.7475    0.0000 HO        1 <0>         0.0000
     35 H11         1.9745    0.5450    0.0000 HO        1 <0>         0.0000
     36 H12        -1.5979    1.7825    0.0000 HA        1 <0>         0.0000
     37 H13        -2.3123   -0.2800    0.0000 H1        1 <0>         0.0000
     38 H14        -2.3123   -0.2800    0.0000 H1        1 <0>         0.0000
     39 H15        -2.3123   -0.2800    0.0000 H1        1 <0>         0.0000
     40 H16        -0.8834    3.0200    0.0000 HC        1 <0>         0.0000
     41 H17        -0.8834    3.0200    0.0000 HC        1 <0>         0.0000
     42 H18        -0.8834    3.0200    0.0000 HC        1 <0>         0.0000
@<TRIPOS>BOND
     1    1    2 ar
     2    1   21 ar
     3    2    3 ar
     4    2    7 ar
     5    3    4 ar
     6    3   19 ar
     7    4    5 ar
     8    5    6 ar
     9    6    7 ar
    10    6   18 1
    11    7    8 1
    12    8    9 2
    13    8   10 1
    14   10   11 1
    15   11   12 1
    16   11   15 1
    17   11   25 1
    18   12   13 1
    19   12   17 1
    20   12   26 1
    21   13   14 2
    22   14   15 1
    23   15   16 1
    24   15   27 1
    25   19   20 ar
    26   19   24 1
    27   20   21 ar
    28   21   22 1
    29   22   23 1
    30    1   28 1
    31    4   29 1
    32    5   30 1
    33   13   31 1
    34   14   32 1
    35   16   33 1
    36   17   34 1
    37   18   35 1
    38   20   36 1
    39   23   37 1
    40   23   38 1
    41   23   39 1
    42   24   40 1
    43   24   41 1
    44   24   42 1
@<TRIPOS>MOLECULE
NDD
   24    25     0     0     0
SMALL
NO_CHARGES

@<TRIPOS>ATOM
      1 C1         -0.7145   -0.8252    0.0000 CA        1 <0>         0.0000
      2 C2         -1.4289   -0.4127    0.0000 CA        1 <0>         0.0000
      3 C3         -1.4289    0.4123    0.0000 CA        1 <0>         0.0000
      4 C4         -0.7145    0.8248    0.0000 CA        1 <0>         0.0000
      5 C5          0.0000    0.4123    0.0000 CB        1 <0>         0.0000
      6 C6          0.7145    0.8248    0.0000 CA        1 <0>         0.0000
      7 C7          1.4289    0.4123    0.0000 CA        1 <0>         0.0000
      8 C8          1.4289   -0.4127    0.0000 CA        1 <0>         0.0000
      9 C9          0.7145   -0.8252    0.0000 CA        1 <0>         0.0000
     10 C10         0.0000   -0.4127    0.0000 CB        1 <0>         0.0000
     11 C11        -2.1434   -0.8252    0.0000 C         1 <0>         0.0000
     12 O1         -2.1434   -1.6502    0.0000 O         1 <0>         0.0000
     13 O2         -2.8579   -0.4127    0.0000 OH        1 <0>         0.0000
     14 C12         2.1434    0.8248    0.0000 C         1 <0>         0.0000
     15 O3          2.1434    1.6498    0.0000 O         1 <0>         0.0000
     16 O4          2.8579    0.4123    0.0000 OH        1 <0>         0.0000
     17 H1         -0.7145   -0.8252    0.0000 HA        1 <0>         0.0000
     18 H2         -1.4289    0.4123    0.0000 HA        1 <0>         0.0000
     19 H3         -0.7145    0.8248    0.0000 HA        1 <0>         0.0000
     20 H4          0.7145    0.8248    0.0000 HA        1 <0>         0.0000
     21 H5          1.4289   -0.4127    0.0000 HA        1 <0>         0.0000
     22 H6          0.7145   -0.8252    0.0000 HA        1 <0>         0.0000
     23 H7         -2.8579   -0.4127    0.0000 HO        1 <0>         0.0000
     24 H8          2.8579    0.4123    0.0000 HO        1 <0>         0.0000
@<TRIPOS>BOND
     1    1    2 ar
     2    1   10 ar
     3    2    3 ar
     4    2   11 1
     5    3    4 ar
     6    4    5 ar
     7    5    6 ar
     8    5   10 ar
     9    6    7 ar
    10    7    8 ar
    11    7   14 1
    12    8    9 ar
    13    9   10 ar
    14   11   12 2
    15   11   13 1
    16   14   15 2
    17   14   16 1
    18    1   17 1
    19    3   18 1
    20    4   19 1
    21    6   20 1
    22    8   21 1
    23    9   22 1
    24   13   23 1
    25   16   24 1
@<TRIPOS>MOLECULE
NDH
   22    23     0     0     0
SMALL
NO_CHARGES

@<TRIPOS>ATOM
      1 O1         -0.4602    1.4532    0.0000 OH        1 <0>         0.0000
      2 C1         -0.4602    0.6282    0.0000 CT        1 <0>         0.0000
      3 C2         -1.1747    0.2157    0.0000 CT        1 <0>         0.0000
      4 O2         -1.8891    0.6282    0.0000 OH        1 <0>         0.0000
      5 C3         -1.1747   -0.6093    0.0000 CM        1 <0>         0.0000
      6 C4         -0.4602   -1.0218    0.0000 CM        1 <0>         0.0000
      7 C5          0.2543   -0.6093    0.0000 CA        1 <0>         0.0000
      8 C6          0.2543    0.2157    0.0000 CA        1 <0>         0.0000
      9 C7          0.9687    0.6282    0.0000 CA        1 <0>         0.0000
     10 C8          0.9687   -1.0218    0.0000 CA        1 <0>         0.0000
     11 C9          1.6832   -0.6093    0.0000 CA        1 <0>         0.0000
     12 C10         1.6832    0.2157    0.0000 CA        1 <0>         0.0000
     13 H1         -1.0353    0.7296    0.0000 H1        1 <0>         0.0000
     14 H2         -1.3744    0.7644    0.0000 H1        1 <0>         0.0000
     15 H3         -0.4602    1.4532    0.0000 HO        1 <0>         0.0000
     16 H4         -1.8891    0.6282    0.0000 HO        1 <0>         0.0000
     17 H5         -1.1747   -0.6093    0.0000 HA        1 <0>         0.0000
     18 H6         -0.4602   -1.0218    0.0000 HA        1 <0>         0.0000
     19 H7          0.9687    0.6282    0.0000 HA        1 <0>         0.0000
     20 H8          0.9687   -1.0218    0.0000 HA        1 <0>         0.0000
     21 H9          1.6832   -0.6093    0.0000 HA        1 <0>         0.0000
     22 H10         1.6832    0.2157    0.0000 HA        1 <0>         0.0000
@<TRIPOS>BOND
     1    1    2 1
     2    2    3 1
     3    2    8 1
     4    2   13 1
     5    3    4 1
     6    3    5 1
     7    3   14 1
     8    5    6 2
     9    6    7 1
    10    7    8 ar
    11    7   10 ar
    12    8    9 ar
    13    9   12 ar
    14   10   11 ar
    15   11   12 ar
    16    1   15 1
    17    4   16 1
    18    5   17 1
    19    6   18 1
    20    9   19 1
    21   10   20 1
    22   11   21 1
    23   12   22 1
@<TRIPOS>MOLECULE
NIU
   44    46     0     0     0
SMALL
NO_CHARGES

@<TRIPOS>ATOM
      1 C1         -0.6139   -0.4904    0.0000 CA        1 <0>         0.0000
      2 C2         -0.6139   -1.3154    0.0000 C         1 <0>         0.0000
      3 O1         -1.3284   -1.7279    0.0000 O         1 <0>         0.0000
      4 O2          0.1005   -1.7279    0.0000 OS        1 <0>         0.0000
      5 C3          0.8150   -1.3154    0.0000 CA        1 <0>         0.0000
      6 C4          0.8150   -0.4904    0.0000 CA        1 <0>         0.0000
      7 C5          0.1005   -0.0779    0.0000 CA        1 <0>         0.0000
      8 O3          0.1005    0.7471    0.0000 OH        1 <0>         0.0000
      9 C6         -1.3284    0.7471    0.0000 CA        1 <0>         0.0000
     10 C7         -2.0429    1.1596    0.0000 CA        1 <0>         0.0000
     11 C8         -2.0429    1.9846    0.0000 CA        1 <0>         0.0000
     12 C9         -1.3284    2.3971    0.0000 CA        1 <0>         0.0000
     13 C10        -0.6139    1.9846    0.0000 CA        1 <0>         0.0000
     14 C11        -0.6139    1.1596    0.0000 CA        1 <0>         0.0000
     15 C12        -1.3284   -0.0779    0.0000 CT        1 <0>         0.0000
     16 C13        -2.0429   -0.4904    0.0000 CT        1 <0>         0.0000
     17 C14        -2.7574   -0.0779    0.0000 CT        1 <0>         0.0000
     18 C15         1.4600   -1.8298    0.0000 CT        1 <0>         0.0000
     19 C16         2.2643   -1.6462    0.0000 CT        1 <0>         0.0000
     20 C17         2.6223   -0.9029    0.0000 CT        1 <0>         0.0000
     21 C18         2.2643   -0.1596    0.0000 CT        1 <0>         0.0000
     22 C19         1.4600    0.0239    0.0000 CT        1 <0>         0.0000
     23 H1         -0.8227    0.2140    0.0000 HC        1 <0>         0.0000
     24 H2          0.1005    0.7471    0.0000 HO        1 <0>         0.0000
     25 H3         -2.0429    1.1596    0.0000 HA        1 <0>         0.0000
     26 H4         -2.0429    1.9846    0.0000 HA        1 <0>         0.0000
     27 H5         -1.3284    2.3971    0.0000 HA        1 <0>         0.0000
     28 H6         -0.6139    1.9846    0.0000 HA        1 <0>         0.0000
     29 H7         -0.6139    1.1596    0.0000 HA        1 <0>         0.0000
     30 H8         -2.0429   -0.4904    0.0000 HC        1 <0>         0.0000
     31 H9         -2.0429   -0.4904    0.0000 HC        1 <0>         0.0000
     32 H10        -2.7574   -0.0779    0.0000 HC        1 <0>         0.0000
     33 H11        -2.7574   -0.0779    0.0000 HC        1 <0>         0.0000
     34 H12        -2.7574   -0.0779    0.0000 HC        1 <0>         0.0000
     35 H13         1.4600   -1.8298    0.0000 HC        1 <0>         0.0000
     36 H14         1.4600   -1.8298    0.0000 HC        1 <0>         0.0000
     37 H15         2.2643   -1.6462    0.0000 HC        1 <0>         0.0000
     38 H16         2.2643   -1.6462    0.0000 HC        1 <0>         0.0000
     39 H17         2.6223   -0.9029    0.0000 HC        1 <0>         0.0000
     40 H18         2.6223   -0.9029    0.0000 HC        1 <0>         0.0000
     41 H19         2.2643   -0.1596    0.0000 HC        1 <0>         0.0000
     42 H20         2.2643   -0.1596    0.0000 HC        1 <0>         0.0000
     43 H21         1.4600    0.0239    0.0000 HC        1 <0>         0.0000
     44 H22         1.4600    0.0239    0.0000 HC        1 <0>         0.0000
@<TRIPOS>BOND
     1    1    2 1
     2    1    7 2
     3    1   15 1
     4    2    3 2
     5    2    4 1
     6    4    5 1
     7    5    6 2
     8    5   18 1
     9    6    7 1
    10    6   22 1
    11    7    8 1
    12    9   10 ar
    13    9   14 ar
    14    9   15 1
    15   10   11 ar
    16   11   12 ar
    17   12   13 ar
    18   13   14 ar
    19   15   16 1
    20   15   23 1
    21   16   17 1
    22   18   19 1
    23   19   20 1
    24   20   21 1
    25   21   22 1
    26    8   24 1
    27   10   25 1
    28   11   26 1
    29   12   27 1
    30   13   28 1
    31   14   29 1
    32   16   30 1
    33   16   31 1
    34   17   32 1
    35   17   33 1
    36   17   34 1
    37   18   35 1
    38   18   36 1
    39   19   37 1
    40   19   38 1
    41   20   39 1
    42   20   40 1
    43   21   41 1
    44   21   42 1
    45   22   43 1
    46   22   44 1
@<TRIPOS>MOLECULE
NOA
   25    26     0     0     0
SMALL
NO_CHARGES

@<TRIPOS>ATOM
      1 C1         -0.0733   -2.1497    0.0000 C         1 <0>         0.0000
      2 C2         -0.0733   -1.3247    0.0000 CT        1 <0>         0.0000
      3 C3         -0.7878   -0.0872    0.0000 CA        1 <0>         0.0000
      4 C4         -1.5023    0.3253    0.0000 CA        1 <0>         0.0000
      5 C5         -1.5023    1.1503    0.0000 CA        1 <0>         0.0000
      6 C6         -0.7878    1.5628    0.0000 CA        1 <0>         0.0000
      7 C7         -0.0733    1.1503    0.0000 CB        1 <0>         0.0000
      8 C8          0.6411    1.5628    0.0000 CA        1 <0>         0.0000
      9 C9          1.3556    1.1503    0.0000 CA        1 <0>         0.0000
     10 C10         1.3556    0.3253    0.0000 CA        1 <0>         0.0000
     11 C11         0.6411   -0.0872    0.0000 CA        1 <0>         0.0000
     12 C12        -0.0733    0.3253    0.0000 CB        1 <0>         0.0000
     13 O1          0.6411   -2.5622    0.0000 O         1 <0>         0.0000
     14 O2         -0.7878   -2.5622    0.0000 OH        1 <0>         0.0000
     15 O3         -0.7878   -0.9122    0.0000 OS        1 <0>         0.0000
     16 H1         -0.0733   -1.3247    0.0000 H1        1 <0>         0.0000
     17 H2         -0.0733   -1.3247    0.0000 H1        1 <0>         0.0000
     18 H3         -1.5023    0.3253    0.0000 HA        1 <0>         0.0000
     19 H4         -1.5023    1.1503    0.0000 HA        1 <0>         0.0000
     20 H5         -0.7878    1.5628    0.0000 HA        1 <0>         0.0000
     21 H6          0.6411    1.5628    0.0000 HA        1 <0>         0.0000
     22 H7          1.3556    1.1503    0.0000 HA        1 <0>         0.0000
     23 H8          1.3556    0.3253    0.0000 HA        1 <0>         0.0000
     24 H9          0.6411   -0.0872    0.0000 HA        1 <0>         0.0000
     25 H10        -0.7878   -2.5622    0.0000 HO        1 <0>         0.0000
@<TRIPOS>BOND
     1    1    2 1
     2    1   13 2
     3    1   14 1
     4    2   15 1
     5    3    4 ar
     6    3   12 ar
     7    3   15 1
     8    4    5 ar
     9    5    6 ar
    10    6    7 ar
    11    7    8 ar
    12    7   12 ar
    13    8    9 ar
    14    9   10 ar
    15   10   11 ar
    16   11   12 ar
    17    2   16 1
    18    2   17 1
    19    4   18 1
    20    5   19 1
    21    6   20 1
    22    8   21 1
    23    9   22 1
    24   10   23 1
    25   11   24 1
    26   14   25 1
@<TRIPOS>MOLECULE
NTH
   57    60     0     0     0
SMALL
NO_CHARGES

@<TRIPOS>ATOM
      1 C1         -0.2020    2.1906    0.0000 CT        1 <0>         0.0000
      2 C2         -0.4569    2.9752    0.0000 CT        1 <0>         0.0000
      3 C3         -1.2639    3.1467    0.0000 C         1 <0>         0.0000
      4 O1         -1.5188    3.9313    0.0000 O         1 <0>         0.0000
      5 C4         -1.8159    2.5336    0.0000 CM        1 <0>         0.0000
      6 C5         -1.5610    1.7490    0.0000 CM        1 <0>         0.0000
      7 C6         -2.1130    1.1359    0.0000 CT        1 <0>         0.0000
      8 C7         -1.8581    0.3513    0.0000 CT        1 <0>         0.0000
      9 C8         -1.0511    0.1798    0.0000 CT        1 <0>         0.0000
     10 C9         -0.4991    0.7929    0.0000 CT        1 <0>         0.0000
     11 C10        -0.7540    1.5775    0.0000 CT        1 <0>         0.0000
     12 C11         0.3079    0.6213    0.0000 CT        1 <0>         0.0000
     13 C12         0.5628   -0.1633    0.0000 CT        1 <0>         0.0000
     14 C13         0.0108   -0.7764    0.0000 CT        1 <0>         0.0000
     15 C14        -0.7962   -0.6049    0.0000 CT        1 <0>         0.0000
     16 C15        -1.2087   -1.3193    0.0000 CT        1 <0>         0.0000
     17 C16        -0.6566   -1.9324    0.0000 CT        1 <0>         0.0000
     18 C17         0.0970   -1.5969    0.0000 CT        1 <0>         0.0000
     19 O2          0.8115   -2.0094    0.0000 OS        1 <0>         0.0000
     20 C18         0.7954   -1.0313    0.0000 CT        1 <0>         0.0000
     21 C19         1.5260   -1.5969    0.0000 C         1 <0>         0.0000
     22 O3          1.5260   -0.7719    0.0000 O         1 <0>         0.0000
     23 C20         2.9549   -1.5969    0.0000 CT        1 <0>         0.0000
     24 C21         2.2404   -2.0094    0.0000 CT        1 <0>         0.0000
     25 C22         3.6694   -2.0094    0.0000 C         1 <0>         0.0000
     26 O4          4.3839   -1.5969    0.0000 O         1 <0>         0.0000
     27 O5          3.6694   -2.8344    0.0000 OH        1 <0>         0.0000
     28 H1         -1.4418   -0.2542    0.0000 HC        1 <0>         0.0000
     29 H2         -0.2803    1.3343    0.0000 HC        1 <0>         0.0000
     30 H3         -0.1758    1.6587    0.0000 HC        1 <0>         0.0000
     31 H4         -1.3769   -0.5438    0.0000 HC        1 <0>         0.0000
     32 H5          0.5868   -1.2788    0.0000 H1        1 <0>         0.0000
     33 H6         -0.2020    2.1906    0.0000 HC        1 <0>         0.0000
     34 H7         -0.2020    2.1906    0.0000 HC        1 <0>         0.0000
     35 H8         -0.4569    2.9752    0.0000 HC        1 <0>         0.0000
     36 H9         -0.4569    2.9752    0.0000 HC        1 <0>         0.0000
     37 H10        -1.8159    2.5336    0.0000 HA        1 <0>         0.0000
     38 H11        -2.1130    1.1359    0.0000 HC        1 <0>         0.0000
     39 H12        -2.1130    1.1359    0.0000 HC        1 <0>         0.0000
     40 H13        -1.8581    0.3513    0.0000 HC        1 <0>         0.0000
     41 H14        -1.8581    0.3513    0.0000 HC        1 <0>         0.0000
     42 H15         0.3079    0.6213    0.0000 HC        1 <0>         0.0000
     43 H16         0.3079    0.6213    0.0000 HC        1 <0>         0.0000
     44 H17         0.5628   -0.1633    0.0000 HC        1 <0>         0.0000
     45 H18         0.5628   -0.1633    0.0000 HC        1 <0>         0.0000
     46 H19        -1.2087   -1.3193    0.0000 HC        1 <0>         0.0000
     47 H20        -1.2087   -1.3193    0.0000 HC        1 <0>         0.0000
     48 H21        -0.6566   -1.9324    0.0000 HC        1 <0>         0.0000
     49 H22        -0.6566   -1.9324    0.0000 HC        1 <0>         0.0000
     50 H23         0.7954   -1.0313    0.0000 HC        1 <0>         0.0000
     51 H24         0.7954   -1.0313    0.0000 HC        1 <0>         0.0000
     52 H25         0.7954   -1.0313    0.0000 HC        1 <0>         0.0000
     53 H26         2.9549   -1.5969    0.0000 HC        1 <0>         0.0000
     54 H27         2.9549   -1.5969    0.0000 HC        1 <0>         0.0000
     55 H28         2.2404   -2.0094    0.0000 HC        1 <0>         0.0000
     56 H29         2.2404   -2.0094    0.0000 HC        1 <0>         0.0000
     57 H30         3.6694   -2.8344    0.0000 HO        1 <0>         0.0000
@<TRIPOS>BOND
     1    1    2 1
     2    1   11 1
     3    2    3 1
     4    3    4 2
     5    3    5 1
     6    5    6 2
     7    6    7 1
     8    6   11 1
     9    7    8 1
    10    8    9 1
    11    9   10 1
    12    9   15 1
    13    9   28 1
    14   10   11 1
    15   10   12 1
    16   10   29 1
    17   11   30 1
    18   12   13 1
    19   13   14 1
    20   14   15 1
    21   14   18 1
    22   14   20 1
    23   15   16 1
    24   15   31 1
    25   16   17 1
    26   17   18 1
    27   18   19 1
    28   18   32 1
    29   19   21 1
    30   21   22 2
    31   21   24 1
    32   23   24 1
    33   23   25 1
    34   25   26 2
    35   25   27 1
    36    1   33 1
    37    1   34 1
    38    2   35 1
    39    2   36 1
    40    5   37 1
    41    7   38 1
    42    7   39 1
    43    8   40 1
    44    8   41 1
    45   12   42 1
    46   12   43 1
    47   13   44 1
    48   13   45 1
    49   16   46 1
    50   16   47 1
    51   17   48 1
    52   17   49 1
    53   20   50 1
    54   20   51 1
    55   20   52 1
    56   23   53 1
    57   23   54 1
    58   24   55 1
    59   24   56 1
    60   27   57 1
@<TRIPOS>MOLECULE
ODE
   55    58     0     0     0
SMALL
NO_CHARGES

@<TRIPOS>ATOM
      1 C1         -1.1673    1.9576    0.0000 CA        1 <0>         0.0000
      2 C2         -1.7812    2.5087    0.0000 CA        1 <0>         0.0000
      3 C3         -2.5655    2.2527    0.0000 CA        1 <0>         0.0000
      4 O1         -3.1794    2.8038    0.0000 OH        1 <0>         0.0000
      5 C4         -2.7359    1.4455    0.0000 CA        1 <0>         0.0000
      6 C5         -2.1220    0.8943    0.0000 CA        1 <0>         0.0000
      7 C6         -1.3377    1.1504    0.0000 CA        1 <0>         0.0000
      8 C7         -0.7238    0.5992    0.0000 CM        1 <0>         0.0000
      9 C8         -0.0835    1.0494    0.0000 CT        1 <0>         0.0000
     10 O2         -0.2435    1.8648    0.0000 OS        1 <0>         0.0000
     11 C9          0.7120    0.5841    0.0000 CT        1 <0>         0.0000
     12 C10         1.5001    0.8282    0.0000 C         1 <0>         0.0000
     13 O3          1.6827    1.6327    0.0000 O         1 <0>         0.0000
     14 O4          2.1055    0.2677    0.0000 OS        1 <0>         0.0000
     15 C11         2.8935    0.5118    0.0000 CT        1 <0>         0.0000
     16 C12         3.4989   -0.0486    0.0000 CT        1 <0>         0.0000
     17 C13         0.4169   -0.0413    0.0000 CT        1 <0>         0.0000
     18 C14         0.6845   -0.8216    0.0000 C         1 <0>         0.0000
     19 O5          0.1425   -1.4436    0.0000 O         1 <0>         0.0000
     20 O6          1.4942   -0.9801    0.0000 OS        1 <0>         0.0000
     21 C15         1.7618   -1.7604    0.0000 CT        1 <0>         0.0000
     22 C16         2.5714   -1.9189    0.0000 CT        1 <0>         0.0000
     23 C17        -0.3136    0.3290    0.0000 CT        1 <0>         0.0000
     24 C18        -1.0891   -0.0613    0.0000 CM        1 <0>         0.0000
     25 C19        -1.6837   -0.6332    0.0000 CA        1 <0>         0.0000
     26 C20        -2.4763   -0.4042    0.0000 CA        1 <0>         0.0000
     27 C21        -3.0709   -0.9761    0.0000 CA        1 <0>         0.0000
     28 C22        -2.8729   -1.7770    0.0000 CA        1 <0>         0.0000
     29 O7         -3.4675   -2.3489    0.0000 OH        1 <0>         0.0000
     30 C23        -2.0803   -2.0060    0.0000 CA        1 <0>         0.0000
     31 C24        -1.4857   -1.4341    0.0000 CA        1 <0>         0.0000
     32 H1          0.0931    1.6060    0.0000 H1        1 <0>         0.0000
     33 H2          0.7787    1.1642    0.0000 HC        1 <0>         0.0000
     34 H3          0.9999   -0.0735    0.0000 HC        1 <0>         0.0000
     35 H4         -0.3145   -0.2549    0.0000 H1        1 <0>         0.0000
     36 H5         -1.1673    1.9576    0.0000 HA        1 <0>         0.0000
     37 H6         -1.7812    2.5087    0.0000 HA        1 <0>         0.0000
     38 H7         -3.1794    2.8038    0.0000 HO        1 <0>         0.0000
     39 H8         -2.7359    1.4455    0.0000 HA        1 <0>         0.0000
     40 H9         -2.1220    0.8943    0.0000 HA        1 <0>         0.0000
     41 H10         2.8935    0.5118    0.0000 H1        1 <0>         0.0000
     42 H11         2.8935    0.5118    0.0000 H1        1 <0>         0.0000
     43 H12         3.4989   -0.0486    0.0000 HC        1 <0>         0.0000
     44 H13         3.4989   -0.0486    0.0000 HC        1 <0>         0.0000
     45 H14         3.4989   -0.0486    0.0000 HC        1 <0>         0.0000
     46 H15         1.7618   -1.7604    0.0000 H1        1 <0>         0.0000
     47 H16         1.7618   -1.7604    0.0000 H1        1 <0>         0.0000
     48 H17         2.5714   -1.9189    0.0000 HC        1 <0>         0.0000
     49 H18         2.5714   -1.9189    0.0000 HC        1 <0>         0.0000
     50 H19         2.5714   -1.9189    0.0000 HC        1 <0>         0.0000
     51 H20        -2.4763   -0.4042    0.0000 HA        1 <0>         0.0000
     52 H21        -3.0709   -0.9761    0.0000 HA        1 <0>         0.0000
     53 H22        -3.4675   -2.3489    0.0000 HO        1 <0>         0.0000
     54 H23        -2.0803   -2.0060    0.0000 HA        1 <0>         0.0000
     55 H24        -1.4857   -1.4341    0.0000 HA        1 <0>         0.0000
@<TRIPOS>BOND
     1    1    7 ar
     2    1    2 ar
     3    2    3 ar
     4    3    5 ar
     5    3    4 1
     6    5    6 ar
     7    6    7 ar
     8    7    8 1
     9    8    9 1
    10    8   24 2
    11    9   10 1
    12    9   11 1
    13    9   32 1
    14   10   23 1
    15   11   17 1
    16   11   12 1
    17   11   33 1
    18   12   14 1
    19   12   13 2
    20   14   15 1
    21   15   16 1
    22   17   18 1
    23   17   23 1
    24   17   34 1
    25   18   20 1
    26   18   19 2
    27   20   21 1
    28   21   22 1
    29   23   24 1
    30   23   35 1
    31   24   25 1
    32   25   31 ar
    33   25   26 ar
    34   26   27 ar
    35   27   28 ar
    36   28   30 ar
    37   28   29 1
    38   30   31 ar
    39    1   36 1
    40    2   37 1
    41    4   38 1
    42    5   39 1
    43    6   40 1
    44   15   41 1
    45   15   42 1
    46   16   43 1
    47   16   44 1
    48   16   45 1
    49   21   46 1
    50   21   47 1
    51   22   48 1
    52   22   49 1
    53   22   50 1
    54   26   51 1
    55   27   52 1
    56   29   53 1
    57   30   54 1
    58   31   55 1
@<TRIPOS>MOLECULE
OFF
   53    54     0     0     0
SMALL
NO_CHARGES

@<TRIPOS>ATOM
      1 C1         -3.0567   -0.8255    0.0000 CA        1 <0>         0.0000
      2 C2         -3.4692   -1.5400    0.0000 CA        1 <0>         0.0000
      3 C3         -3.0567   -2.2544    0.0000 CA        1 <0>         0.0000
      4 O1         -3.4692   -2.9689    0.0000 OH        1 <0>         0.0000
      5 C4         -2.2317   -2.2544    0.0000 CA        1 <0>         0.0000
      6 C5         -1.8192   -1.5400    0.0000 CA        1 <0>         0.0000
      7 C6         -2.2317   -0.8255    0.0000 CA        1 <0>         0.0000
      8 C7         -1.8192   -0.1110    0.0000 CM        1 <0>         0.0000
      9 C8         -0.9942   -0.1110    0.0000 CM        1 <0>         0.0000
     10 C9         -0.5817    0.6034    0.0000 C         1 <0>         0.0000
     11 O2         -0.9942    1.3179    0.0000 O         1 <0>         0.0000
     12 O3          0.2433    0.6034    0.0000 OS        1 <0>         0.0000
     13 C10         0.6558    1.3179    0.0000 CT        1 <0>         0.0000
     14 C11         0.2433    2.0324    0.0000 CT        1 <0>         0.0000
     15 C12        -0.5817    2.0324    0.0000 C         1 <0>         0.0000
     16 O4         -0.9942    2.7468    0.0000 OH        1 <0>         0.0000
     17 O5         -1.3353    1.6968    0.0000 O         1 <0>         0.0000
     18 C13         1.4808    1.3179    0.0000 CT        1 <0>         0.0000
     19 C14         1.8933    0.6034    0.0000 C         1 <0>         0.0000
     20 O6          1.4808   -0.1110    0.0000 OH        1 <0>         0.0000
     21 O7          2.7183    0.6034    0.0000 O         1 <0>         0.0000
     22 O8          1.8933    2.0324    0.0000 OS        1 <0>         0.0000
     23 C15         2.7183    2.0324    0.0000 C         1 <0>         0.0000
     24 O9          3.1308    1.3179    0.0000 O         1 <0>         0.0000
     25 C16         3.1308    2.7468    0.0000 CM        1 <0>         0.0000
     26 C17         3.9558    2.7468    0.0000 CM        1 <0>         0.0000
     27 C18         4.3683    3.4613    0.0000 CA        1 <0>         0.0000
     28 C19         5.1933    3.4613    0.0000 CA        1 <0>         0.0000
     29 C20         5.6058    4.1758    0.0000 CA        1 <0>         0.0000
     30 C21         5.1933    4.8903    0.0000 CA        1 <0>         0.0000
     31 O10         5.6058    5.6047    0.0000 OH        1 <0>         0.0000
     32 C22         4.3683    4.8903    0.0000 CA        1 <0>         0.0000
     33 C23         3.9558    4.1758    0.0000 CA        1 <0>         0.0000
     34 H1          0.0719    1.3179    0.0000 H1        1 <0>         0.0000
     35 H2          1.1889    0.8122    0.0000 H1        1 <0>         0.0000
     36 H3         -3.0567   -0.8255    0.0000 HA        1 <0>         0.0000
     37 H4         -3.4692   -1.5400    0.0000 HA        1 <0>         0.0000
     38 H5         -3.4692   -2.9689    0.0000 HO        1 <0>         0.0000
     39 H6         -2.2317   -2.2544    0.0000 HA        1 <0>         0.0000
     40 H7         -1.8192   -1.5400    0.0000 HA        1 <0>         0.0000
     41 H8         -1.8192   -0.1110    0.0000 HA        1 <0>         0.0000
     42 H9         -0.9942   -0.1110    0.0000 HA        1 <0>         0.0000
     43 H10         0.2433    2.0324    0.0000 HC        1 <0>         0.0000
     44 H11         0.2433    2.0324    0.0000 HC        1 <0>         0.0000
     45 H12        -0.9942    2.7468    0.0000 HO        1 <0>         0.0000
     46 H13         1.4808   -0.1110    0.0000 HO        1 <0>         0.0000
     47 H14         3.1308    2.7468    0.0000 HA        1 <0>         0.0000
     48 H15         3.9558    2.7468    0.0000 HA        1 <0>         0.0000
     49 H16         5.1933    3.4613    0.0000 HA        1 <0>         0.0000
     50 H17         5.6058    4.1758    0.0000 HA        1 <0>         0.0000
     51 H18         5.6058    5.6047    0.0000 HO        1 <0>         0.0000
     52 H19         4.3683    4.8903    0.0000 HA        1 <0>         0.0000
     53 H20         3.9558    4.1758    0.0000 HA        1 <0>         0.0000
@<TRIPOS>BOND
     1    1    7 ar
     2    1    2 ar
     3    2    3 ar
     4    3    5 ar
     5    3    4 1
     6    5    6 ar
     7    6    7 ar
     8    7    8 1
     9    8    9 2
    10    9   10 1
    11   10   11 2
    12   10   12 1
    13   12   13 1
    14   13   14 1
    15   13   18 1
    16   13   34 1
    17   14   15 1
    18   15   17 2
    19   15   16 1
    20   18   19 1
    21   18   22 1
    22   18   35 1
    23   19   21 2
    24   19   20 1
    25   22   23 1
    26   23   25 1
    27   23   24 2
    28   25   26 2
    29   26   27 1
    30   27   33 ar
    31   27   28 ar
    32   28   29 ar
    33   29   30 ar
    34   30   32 ar
    35   30   31 1
    36   32   33 ar
    37    1   36 1
    38    2   37 1
    39    4   38 1
    40    5   39 1
    41    6   40 1
    42    8   41 1
    43    9   42 1
    44   14   43 1
    45   14   44 1
    46   16   45 1
    47   20   46 1
    48   25   47 1
    49   26   48 1
    50   28   49 1
    51   29   50 1
    52   31   51 1
    53   32   52 1
    54   33   53 1
@<TRIPOS>MOLECULE
*****
   20    20     0     0     0
SMALL
NO_CHARGES

@<TRIPOS>ATOM
      1 C1         -0.2379    0.1379    0.0000 CA        1 <0>         0.0000
      2 C2          0.4759   -0.2759    0.0000 CA        1 <0>         0.0000
      3 C3         -0.9550   -0.2759    0.0000 CA        1 <0>         0.0000
      4 C4         -0.2379    0.9619    0.0000 CT        1 <0>         0.0000
      5 C5          0.4759   -1.0998    0.0000 CA        1 <0>         0.0000
      6 O1          1.1895    0.1379    0.0000 OH        1 <0>         0.0000
      7 C6         -0.9550   -1.0998    0.0000 CA        1 <0>         0.0000
      8 C7          0.4793    1.3757    0.0000 C         1 <0>         0.0000
      9 C8         -0.2379   -1.5136    0.0000 CA        1 <0>         0.0000
     10 O2         -1.6688   -1.5136    0.0000 OH        1 <0>         0.0000
     11 O3          1.1929    0.9619    0.0000 OH        1 <0>         0.0000
     12 O4          0.4793    2.1996    0.0000 O         1 <0>         0.0000
     13 H1         -0.9550   -0.2759    0.0000 HA        1 <0>         0.0000
     14 H2         -0.2379    0.9619    0.0000 HC        1 <0>         0.0000
     15 H3         -0.2379    0.9619    0.0000 HC        1 <0>         0.0000
     16 H4          0.4759   -1.0998    0.0000 HA        1 <0>         0.0000
     17 H5          1.1895    0.1379    0.0000 HO        1 <0>         0.0000
     18 H6         -0.2379   -1.5136    0.0000 HA        1 <0>         0.0000
     19 H7         -1.6688   -1.5136    0.0000 HO        1 <0>         0.0000
     20 H8          1.1929    0.9619    0.0000 HO        1 <0>         0.0000
@<TRIPOS>BOND
     1    1    2 ar
     2    1    3 ar
     3    1    4 1
     4    2    5 ar
     5    2    6 1
     6    3    7 ar
     7    4    8 1
     8    5    9 ar
     9    7   10 1
    10    8   11 1
    11    8   12 2
    12    7    9 ar
    13    3   13 1
    14    4   14 1
    15    4   15 1
    16    5   16 1
    17    6   17 1
    18    9   18 1
    19   10   19 1
    20   11   20 1
@<TRIPOS>MOLECULE
OST
   40    41     0     0     0
SMALL
NO_CHARGES

@<TRIPOS>ATOM
      1 C1         -0.3853    2.0060    0.0000 CT        1 <0>         0.0000
      2 O1          0.3292    1.5935    0.0000 OS        1 <0>         0.0000
      3 C2          0.3292    0.7685    0.0000 C         1 <0>         0.0000
      4 O2         -0.3853    0.3560    0.0000 O         1 <0>         0.0000
      5 C3          1.0436    0.3560    0.0000 CM        1 <0>         0.0000
      6 C4          1.7581    0.7685    0.0000 CM        1 <0>         0.0000
      7 O3          2.4726    0.3560    0.0000 OS        1 <0>         0.0000
      8 C5          3.1871    0.7685    0.0000 CT        1 <0>         0.0000
      9 C6          1.0436   -0.4690    0.0000 CA        1 <0>         0.0000
     10 C7          1.7581   -0.8815    0.0000 CA        1 <0>         0.0000
     11 C8          0.3292   -0.8815    0.0000 CA        1 <0>         0.0000
     12 C9          0.3292   -1.7065    0.0000 CA        1 <0>         0.0000
     13 C10         1.0436   -2.1190    0.0000 CA        1 <0>         0.0000
     14 C11         1.7581   -1.7065    0.0000 CA        1 <0>         0.0000
     15 C12        -0.3853   -0.4690    0.0000 CM        1 <0>         0.0000
     16 C13        -1.0998   -0.8815    0.0000 CM        1 <0>         0.0000
     17 C14        -1.8142   -0.4690    0.0000 CA        1 <0>         0.0000
     18 C15        -2.5287   -0.8815    0.0000 CA        1 <0>         0.0000
     19 C16        -3.2432   -0.4690    0.0000 CA        1 <0>         0.0000
     20 C17        -1.8142    0.3560    0.0000 CA        1 <0>         0.0000
     21 C18        -2.5287    0.7685    0.0000 CA        1 <0>         0.0000
     22 C19        -3.2432    0.3560    0.0000 CA        1 <0>         0.0000
     23 H1         -0.3853    2.0060    0.0000 H1        1 <0>         0.0000
     24 H2         -0.3853    2.0060    0.0000 H1        1 <0>         0.0000
     25 H3         -0.3853    2.0060    0.0000 H1        1 <0>         0.0000
     26 H4          1.7581    0.7685    0.0000 H4        1 <0>         0.0000
     27 H5          3.1871    0.7685    0.0000 H1        1 <0>         0.0000
     28 H6          3.1871    0.7685    0.0000 H1        1 <0>         0.0000
     29 H7          3.1871    0.7685    0.0000 H1        1 <0>         0.0000
     30 H8          1.7581   -0.8815    0.0000 HA        1 <0>         0.0000
     31 H9          0.3292   -1.7065    0.0000 HA        1 <0>         0.0000
     32 H10         1.0436   -2.1190    0.0000 HA        1 <0>         0.0000
     33 H11         1.7581   -1.7065    0.0000 HA        1 <0>         0.0000
     34 H12        -0.3853   -0.4690    0.0000 HA        1 <0>         0.0000
     35 H13        -1.0998   -0.8815    0.0000 HA        1 <0>         0.0000
     36 H14        -2.5287   -0.8815    0.0000 HA        1 <0>         0.0000
     37 H15        -3.2432   -0.4690    0.0000 HA        1 <0>         0.0000
     38 H16        -1.8142    0.3560    0.0000 HA        1 <0>         0.0000
     39 H17        -2.5287    0.7685    0.0000 HA        1 <0>         0.0000
     40 H18        -3.2432    0.3560    0.0000 HA        1 <0>         0.0000
@<TRIPOS>BOND
     1    1    2 1
     2    2    3 1
     3    3    4 2
     4    3    5 1
     5    5    6 2
     6    5    9 1
     7    6    7 1
     8    7    8 1
     9    9   10 ar
    10    9   11 ar
    11   10   14 ar
    12   11   12 ar
    13   11   15 1
    14   12   13 ar
    15   13   14 ar
    16   15   16 2
    17   16   17 1
    18   17   18 ar
    19   17   20 ar
    20   18   19 ar
    21   19   22 ar
    22   20   21 ar
    23   21   22 ar
    24    1   23 1
    25    1   24 1
    26    1   25 1
    27    6   26 1
    28    8   27 1
    29    8   28 1
    30    8   29 1
    31   10   30 1
    32   12   31 1
    33   13   32 1
    34   14   33 1
    35   15   34 1
    36   16   35 1
    37   18   36 1
    38   19   37 1
    39   20   38 1
    40   21   39 1
    41   22   40 1
@<TRIPOS>MOLECULE
OX1
   38    41     0     0     0
SMALL
NO_CHARGES

@<TRIPOS>ATOM
      1 C1          1.4506   -0.2323    0.0000 CA        1 <0>         0.0000
      2 C2          1.1270    1.3856    0.0000 CA        1 <0>         0.0000
      3 C3          0.6691    0.0321    0.0000 CA        1 <0>         0.0000
      4 C4          2.0703    0.3123    0.0000 CA        1 <0>         0.0000
      5 C5          1.9085    1.1213    0.0000 CA        1 <0>         0.0000
      6 C6          0.5073    0.8410    0.0000 CA        1 <0>         0.0000
      7 C7         -0.0794    0.3790    0.0000 CT        1 <0>         0.0000
      8 C8         -0.2221    1.1274    0.0000 CT        1 <0>         0.0000
      9 C9         -0.0917   -0.4459    0.0000 CT        1 <0>         0.0000
     10 O1          0.0603    1.4176    0.0000 OS        1 <0>         0.0000
     11 C10        -0.4890    0.3467    0.0000 CT        1 <0>         0.0000
     12 O2         -0.1844    2.0235    0.0000 OS        1 <0>         0.0000
     13 C11        -0.9187    0.0201    0.0000 CA        1 <0>         0.0000
     14 C12        -2.4494    0.6361    0.0000 CA        1 <0>         0.0000
     15 C13        -1.5681   -0.4887    0.0000 CA        1 <0>         0.0000
     16 C14        -1.0346    0.8369    0.0000 CA        1 <0>         0.0000
     17 C15        -1.7999    1.1449    0.0000 CA        1 <0>         0.0000
     18 C16        -2.3335   -0.1807    0.0000 CA        1 <0>         0.0000
     19 C17         0.6165   -0.8691    0.0000 CT        1 <0>         0.0000
     20 C18         0.6042   -1.6940    0.0000 C         1 <0>         0.0000
     21 O3          1.3124   -2.1171    0.0000 OH        1 <0>         0.0000
     22 O4         -0.1164   -2.0958    0.0000 O         1 <0>         0.0000
     23 H1          1.4506   -0.2323    0.0000 HA        1 <0>         0.0000
     24 H2          1.1270    1.3856    0.0000 HA        1 <0>         0.0000
     25 H3          2.0703    0.3123    0.0000 HA        1 <0>         0.0000
     26 H4          1.9085    1.1213    0.0000 HA        1 <0>         0.0000
     27 H5         -0.0917   -0.4459    0.0000 HC        1 <0>         0.0000
     28 H6         -0.0917   -0.4459    0.0000 HC        1 <0>         0.0000
     29 H7         -0.4890    0.3467    0.0000 HC        1 <0>         0.0000
     30 H8         -0.4890    0.3467    0.0000 HC        1 <0>         0.0000
     31 H9         -0.4890    0.3467    0.0000 HC        1 <0>         0.0000
     32 H10        -2.4494    0.6361    0.0000 HA        1 <0>         0.0000
     33 H11        -1.5681   -0.4887    0.0000 HA        1 <0>         0.0000
     34 H12        -1.7999    1.1449    0.0000 HA        1 <0>         0.0000
     35 H13        -2.3335   -0.1807    0.0000 HA        1 <0>         0.0000
     36 H14         0.6165   -0.8691    0.0000 HC        1 <0>         0.0000
     37 H15         0.6165   -0.8691    0.0000 HC        1 <0>         0.0000
     38 H16         1.3124   -2.1171    0.0000 HO        1 <0>         0.0000
@<TRIPOS>BOND
     1    1    3 ar
     2    1    4 ar
     3    2    5 ar
     4    2    6 ar
     5    3    6 ar
     6    3    7 1
     7    4    5 ar
     8    6    8 1
     9    7    9 1
    10    7   10 1
    11    7   13 1
    12    8   11 1
    13    8   12 1
    14    8   16 1
    15    9   19 1
    16   10   12 1
    17   13   15 ar
    18   13   16 ar
    19   14   17 ar
    20   14   18 ar
    21   15   18 ar
    22   16   17 ar
    23   19   20 1
    24   20   21 1
    25   20   22 2
    26    1   23 1
    27    2   24 1
    28    4   25 1
    29    5   26 1
    30    9   27 1
    31    9   28 1
    32   11   29 1
    33   11   30 1
    34   11   31 1
    35   14   32 1
    36   15   33 1
    37   17   34 1
    38   18   35 1
    39   19   36 1
    40   19   37 1
    41   21   38 1
@<TRIPOS>MOLECULE
P4G
   29    28     0     0     0
SMALL
NO_CHARGES

@<TRIPOS>ATOM
      1 C1         -3.5722    0.2913    0.0000 CT        1 <0>         0.0000
      2 C2         -2.8577   -0.1212    0.0000 CT        1 <0>         0.0000
      3 O1         -2.1433    0.2913    0.0000 OS        1 <0>         0.0000
      4 C3         -1.4288   -0.1212    0.0000 CT        1 <0>         0.0000
      5 C4         -0.7145    0.2913    0.0000 CT        1 <0>         0.0000
      6 O2          0.0000   -0.1212    0.0000 OS        1 <0>         0.0000
      7 C5          0.7145    0.2913    0.0000 CT        1 <0>         0.0000
      8 C6          1.4288   -0.1212    0.0000 CT        1 <0>         0.0000
      9 O3          2.1433    0.2913    0.0000 OS        1 <0>         0.0000
     10 C7          2.8577   -0.1212    0.0000 CT        1 <0>         0.0000
     11 C8          3.5722    0.2913    0.0000 CT        1 <0>         0.0000
     12 H1         -3.5722    0.2913    0.0000 HC        1 <0>         0.0000
     13 H2         -3.5722    0.2913    0.0000 HC        1 <0>         0.0000
     14 H3         -3.5722    0.2913    0.0000 HC        1 <0>         0.0000
     15 H4         -2.8577   -0.1212    0.0000 H1        1 <0>         0.0000
     16 H5         -2.8577   -0.1212    0.0000 H1        1 <0>         0.0000
     17 H6         -1.4288   -0.1212    0.0000 H1        1 <0>         0.0000
     18 H7         -1.4288   -0.1212    0.0000 H1        1 <0>         0.0000
     19 H8         -0.7145    0.2913    0.0000 H1        1 <0>         0.0000
     20 H9         -0.7145    0.2913    0.0000 H1        1 <0>         0.0000
     21 H10         0.7145    0.2913    0.0000 H1        1 <0>         0.0000
     22 H11         0.7145    0.2913    0.0000 H1        1 <0>         0.0000
     23 H12         1.4288   -0.1212    0.0000 H1        1 <0>         0.0000
     24 H13         1.4288   -0.1212    0.0000 H1        1 <0>         0.0000
     25 H14         2.8577   -0.1212    0.0000 H1        1 <0>         0.0000
     26 H15         2.8577   -0.1212    0.0000 H1        1 <0>         0.0000
     27 H16         3.5722    0.2913    0.0000 HC        1 <0>         0.0000
     28 H17         3.5722    0.2913    0.0000 HC        1 <0>         0.0000
     29 H18         3.5722    0.2913    0.0000 HC        1 <0>         0.0000
@<TRIPOS>BOND
     1    1    2 1
     2    2    3 1
     3    3    4 1
     4    4    5 1
     5    5    6 1
     6    6    7 1
     7    7    8 1
     8    8    9 1
     9    9   10 1
    10   10   11 1
    11    1   12 1
    12    1   13 1
    13    1   14 1
    14    2   15 1
    15    2   16 1
    16    4   17 1
    17    4   18 1
    18    5   19 1
    19    5   20 1
    20    7   21 1
    21    7   22 1
    22    8   23 1
    23    8   24 1
    24   10   25 1
    25   10   26 1
    26   11   27 1
    27   11   28 1
    28   11   29 1
@<TRIPOS>MOLECULE
PAY
   38    37     0     0     0
SMALL
NO_CHARGES

@<TRIPOS>ATOM
      1 O1         -3.0977   -1.3172    0.0000 OH        1 <0>         0.0000
      2 O2         -3.8121   -0.0797    0.0000 O         1 <0>         0.0000
      3 C1         -3.0977   -0.4922    0.0000 C         1 <0>         0.0000
      4 C2         -2.3832   -0.0797    0.0000 CT        1 <0>         0.0000
      5 C3         -1.6687   -0.4922    0.0000 CT        1 <0>         0.0000
      6 C4         -0.9543   -0.0797    0.0000 CT        1 <0>         0.0000
      7 C5         -0.9543    0.7453    0.0000 C         1 <0>         0.0000
      8 O3         -0.2398    1.1578    0.0000 O         1 <0>         0.0000
      9 O4         -1.6687    1.1578    0.0000 OH        1 <0>         0.0000
     10 C6         -0.2398   -0.4922    0.0000 CT        1 <0>         0.0000
     11 C7          0.4747   -0.0797    0.0000 CT        1 <0>         0.0000
     12 C8          0.4747    0.7453    0.0000 C         1 <0>         0.0000
     13 O5          0.1391    1.4990    0.0000 O         1 <0>         0.0000
     14 O6          1.1892    1.1578    0.0000 OH        1 <0>         0.0000
     15 C9          1.1892   -0.4922    0.0000 CT        1 <0>         0.0000
     16 C10         1.9036   -0.0797    0.0000 CT        1 <0>         0.0000
     17 C11         1.9036    0.7453    0.0000 CT        1 <0>         0.0000
     18 C12         2.6181   -0.4922    0.0000 C         1 <0>         0.0000
     19 O7          3.3326   -0.0797    0.0000 OH        1 <0>         0.0000
     20 O8          2.6181   -1.3172    0.0000 O         1 <0>         0.0000
     21 H1         -1.4600    0.2123    0.0000 HC        1 <0>         0.0000
     22 H2         -0.0310    0.2123    0.0000 HC        1 <0>         0.0000
     23 H3          1.3979    0.2123    0.0000 HC        1 <0>         0.0000
     24 H4         -3.0977   -1.3172    0.0000 HO        1 <0>         0.0000
     25 H5         -2.3832   -0.0797    0.0000 HC        1 <0>         0.0000
     26 H6         -2.3832   -0.0797    0.0000 HC        1 <0>         0.0000
     27 H7         -1.6687   -0.4922    0.0000 HC        1 <0>         0.0000
     28 H8         -1.6687   -0.4922    0.0000 HC        1 <0>         0.0000
     29 H9         -1.6687    1.1578    0.0000 HO        1 <0>         0.0000
     30 H10        -0.2398   -0.4922    0.0000 HC        1 <0>         0.0000
     31 H11        -0.2398   -0.4922    0.0000 HC        1 <0>         0.0000
     32 H12         1.1892    1.1578    0.0000 HO        1 <0>         0.0000
     33 H13         1.1892   -0.4922    0.0000 HC        1 <0>         0.0000
     34 H14         1.1892   -0.4922    0.0000 HC        1 <0>         0.0000
     35 H15         1.9036    0.7453    0.0000 HC        1 <0>         0.0000
     36 H16         1.9036    0.7453    0.0000 HC        1 <0>         0.0000
     37 H17         1.9036    0.7453    0.0000 HC        1 <0>         0.0000
     38 H18         3.3326   -0.0797    0.0000 HO        1 <0>         0.0000
@<TRIPOS>BOND
     1    1    3 1
     2    2    3 2
     3    3    4 1
     4    4    5 1
     5    5    6 1
     6    6    7 1
     7    6   10 1
     8    6   21 1
     9    7    8 2
    10    7    9 1
    11   10   11 1
    12   11   12 1
    13   11   15 1
    14   11   22 1
    15   12   13 2
    16   12   14 1
    17   15   16 1
    18   16   17 1
    19   16   18 1
    20   16   23 1
    21   18   19 1
    22   18   20 2
    23    1   24 1
    24    4   25 1
    25    4   26 1
    26    5   27 1
    27    5   28 1
    28    9   29 1
    29   10   30 1
    30   10   31 1
    31   14   32 1
    32   15   33 1
    33   15   34 1
    34   17   35 1
    35   17   36 1
    36   17   37 1
    37   19   38 1
@<TRIPOS>MOLECULE
Piceatannol
   30    31     0     0     0
SMALL
NO_CHARGES

@<TRIPOS>ATOM
      1 O1          1.4289   -1.6500    0.0000 OH        1 <0>         0.0000
      2 C1          1.4289   -2.4750    0.0000 CA        1 <0>         0.0000
      3 C2          2.1434   -2.8875    0.0000 CA        1 <0>         0.0000
      4 C3          2.1434   -3.7125    0.0000 CA        1 <0>         0.0000
      5 C4          2.8579   -4.1250    0.0000 CM        1 <0>         0.0000
      6 C5          3.5724   -3.7125    0.0000 CM        1 <0>         0.0000
      7 C6          4.2868   -4.1250    0.0000 CA        1 <0>         0.0000
      8 C7          5.0013   -3.7125    0.0000 CA        1 <0>         0.0000
      9 C8          5.7158   -4.1250    0.0000 CA        1 <0>         0.0000
     10 O2          6.4302   -3.7125    0.0000 OH        1 <0>         0.0000
     11 C9          5.7158   -4.9500    0.0000 CA        1 <0>         0.0000
     12 O3          6.4302   -5.3625    0.0000 OH        1 <0>         0.0000
     13 C10         5.0013   -5.3625    0.0000 CA        1 <0>         0.0000
     14 C11         4.2868   -4.9500    0.0000 CA        1 <0>         0.0000
     15 C12         1.4289   -4.1250    0.0000 CA        1 <0>         0.0000
     16 C13         0.7145   -3.7125    0.0000 CA        1 <0>         0.0000
     17 O4          0.0000   -4.1250    0.0000 OH        1 <0>         0.0000
     18 C14         0.7145   -2.8875    0.0000 CA        1 <0>         0.0000
     19 H1          1.4289   -1.6500    0.0000 HO        1 <0>         0.0000
     20 H2          2.1434   -2.8875    0.0000 HA        1 <0>         0.0000
     21 H3          2.8579   -4.1250    0.0000 HA        1 <0>         0.0000
     22 H4          3.5724   -3.7125    0.0000 HA        1 <0>         0.0000
     23 H5          5.0013   -3.7125    0.0000 HA        1 <0>         0.0000
     24 H6          6.4302   -3.7125    0.0000 HO        1 <0>         0.0000
     25 H7          6.4302   -5.3625    0.0000 HO        1 <0>         0.0000
     26 H8          5.0013   -5.3625    0.0000 HA        1 <0>         0.0000
     27 H9          4.2868   -4.9500    0.0000 HA        1 <0>         0.0000
     28 H10         1.4289   -4.1250    0.0000 HA        1 <0>         0.0000
     29 H11         0.0000   -4.1250    0.0000 HO        1 <0>         0.0000
     30 H12         0.7145   -2.8875    0.0000 HA        1 <0>         0.0000
@<TRIPOS>BOND
     1    1    2 1
     2    2    3 ar
     3    3    4 ar
     4    4    5 1
     5    5    6 2
     6    6    7 1
     7    7    8 ar
     8    8    9 ar
     9    9   10 1
    10    9   11 ar
    11   11   12 1
    12   11   13 ar
    13   13   14 ar
    14    7   14 ar
    15    4   15 ar
    16   15   16 ar
    17   16   17 1
    18   16   18 ar
    19    2   18 ar
    20    1   19 1
    21    3   20 1
    22    5   21 1
    23    6   22 1
    24    8   23 1
    25   10   24 1
    26   12   25 1
    27   13   26 1
    28   14   27 1
    29   15   28 1
    30   17   29 1
    31   18   30 1
@<TRIPOS>MOLECULE
PRE
   26    26     0     0     0
SMALL
NO_CHARGES

@<TRIPOS>ATOM
      1 C1         -0.1731   -0.0381    0.0000 CT        1 <0>         0.0000
      2 C2         -0.8876    0.3744    0.0000 CM        1 <0>         0.0000
      3 C3         -0.8876    1.1994    0.0000 CM        1 <0>         0.0000
      4 C4         -0.1731    1.6119    0.0000 CT        1 <0>         0.0000
      5 O1         -0.1731    2.4369    0.0000 OH        1 <0>         0.0000
      6 C5          0.5414    1.1994    0.0000 CM        1 <0>         0.0000
      7 C6          0.5414    0.3744    0.0000 CM        1 <0>         0.0000
      8 C7         -0.5604   -0.7665    0.0000 C         1 <0>         0.0000
      9 O2         -0.1232   -1.4661    0.0000 O         1 <0>         0.0000
     10 O3         -1.3849   -0.7953    0.0000 OH        1 <0>         0.0000
     11 C8          0.2142   -0.7665    0.0000 CT        1 <0>         0.0000
     12 C9          1.0387   -0.7953    0.0000 C         1 <0>         0.0000
     13 O4          1.4759   -0.0956    0.0000 O         1 <0>         0.0000
     14 C10         1.4260   -1.5237    0.0000 C         1 <0>         0.0000
     15 O5          2.2505   -1.5525    0.0000 O         1 <0>         0.0000
     16 O6          0.9888   -2.2234    0.0000 OH        1 <0>         0.0000
     17 H1         -0.6788    1.9039    0.0000 H1        1 <0>         0.0000
     18 H2         -0.8876    0.3744    0.0000 HA        1 <0>         0.0000
     19 H3         -0.8876    1.1994    0.0000 HA        1 <0>         0.0000
     20 H4         -0.1731    2.4369    0.0000 HO        1 <0>         0.0000
     21 H5          0.5414    1.1994    0.0000 HA        1 <0>         0.0000
     22 H6          0.5414    0.3744    0.0000 HA        1 <0>         0.0000
     23 H7         -1.3849   -0.7953    0.0000 HO        1 <0>         0.0000
     24 H8          0.2142   -0.7665    0.0000 HC        1 <0>         0.0000
     25 H9          0.2142   -0.7665    0.0000 HC        1 <0>         0.0000
     26 H10         0.9888   -2.2234    0.0000 HO        1 <0>         0.0000
@<TRIPOS>BOND
     1    1    2 1
     2    1    7 1
     3    1    8 1
     4    1   11 1
     5    2    3 2
     6    3    4 1
     7    4    5 1
     8    4    6 1
     9    4   17 1
    10    6    7 2
    11    8    9 2
    12    8   10 1
    13   11   12 1
    14   12   13 2
    15   12   14 1
    16   14   15 2
    17   14   16 1
    18    2   18 1
    19    3   19 1
    20    5   20 1
    21    6   21 1
    22    7   22 1
    23   10   23 1
    24   11   24 1
    25   11   25 1
    26   16   26 1
@<TRIPOS>MOLECULE
PTG
   51    51     0     0     0
SMALL
NO_CHARGES

@<TRIPOS>ATOM
      1 C1         -3.9683   -3.3131    0.0000 CT        1 <0>         0.0000
      2 C2         -3.1837   -3.0582    0.0000 CT        1 <0>         0.0000
      3 C3         -3.0122   -2.2512    0.0000 CT        1 <0>         0.0000
      4 C4         -2.2275   -1.9963    0.0000 CT        1 <0>         0.0000
      5 C5         -2.0560   -1.1893    0.0000 CT        1 <0>         0.0000
      6 C6         -1.2714   -0.9344    0.0000 CM        1 <0>         0.0000
      7 C7         -1.0999   -0.1274    0.0000 CM        1 <0>         0.0000
      8 C8         -0.3153    0.1275    0.0000 CM        1 <0>         0.0000
      9 C9         -0.1437    0.9345    0.0000 CM        1 <0>         0.0000
     10 C10        -0.6958    1.5476    0.0000 C         1 <0>         0.0000
     11 O1         -1.5162    1.4614    0.0000 O         1 <0>         0.0000
     12 C11        -0.2833    2.2621    0.0000 CM        1 <0>         0.0000
     13 C12         0.5237    2.0905    0.0000 CM        1 <0>         0.0000
     14 C13         0.6100    1.2701    0.0000 CT        1 <0>         0.0000
     15 C14         1.3244    0.8576    0.0000 CT        1 <0>         0.0000
     16 C15         2.0389    1.2701    0.0000 CM        1 <0>         0.0000
     17 C16         2.7534    0.8576    0.0000 CM        1 <0>         0.0000
     18 C17         3.4678    1.2701    0.0000 CT        1 <0>         0.0000
     19 C18         4.1823    0.8576    0.0000 CT        1 <0>         0.0000
     20 C19         4.8968    1.2701    0.0000 CT        1 <0>         0.0000
     21 C20         5.6112    0.8576    0.0000 C         1 <0>         0.0000
     22 O2          6.3257    1.2701    0.0000 O         1 <0>         0.0000
     23 O3          5.6112    0.0326    0.0000 OH        1 <0>         0.0000
     24 H1          0.5794    0.6869    0.0000 HC        1 <0>         0.0000
     25 H2         -3.9683   -3.3131    0.0000 HC        1 <0>         0.0000
     26 H3         -3.9683   -3.3131    0.0000 HC        1 <0>         0.0000
     27 H4         -3.9683   -3.3131    0.0000 HC        1 <0>         0.0000
     28 H5         -3.1837   -3.0582    0.0000 HC        1 <0>         0.0000
     29 H6         -3.1837   -3.0582    0.0000 HC        1 <0>         0.0000
     30 H7         -3.0122   -2.2512    0.0000 HC        1 <0>         0.0000
     31 H8         -3.0122   -2.2512    0.0000 HC        1 <0>         0.0000
     32 H9         -2.2275   -1.9963    0.0000 HC        1 <0>         0.0000
     33 H10        -2.2275   -1.9963    0.0000 HC        1 <0>         0.0000
     34 H11        -2.0560   -1.1893    0.0000 HC        1 <0>         0.0000
     35 H12        -2.0560   -1.1893    0.0000 HC        1 <0>         0.0000
     36 H13        -1.2714   -0.9344    0.0000 HA        1 <0>         0.0000
     37 H14        -1.0999   -0.1274    0.0000 HA        1 <0>         0.0000
     38 H15        -0.3153    0.1275    0.0000 HA        1 <0>         0.0000
     39 H16        -0.2833    2.2621    0.0000 HA        1 <0>         0.0000
     40 H17         0.5237    2.0905    0.0000 HA        1 <0>         0.0000
     41 H18         1.3244    0.8576    0.0000 HC        1 <0>         0.0000
     42 H19         1.3244    0.8576    0.0000 HC        1 <0>         0.0000
     43 H20         2.0389    1.2701    0.0000 HA        1 <0>         0.0000
     44 H21         2.7534    0.8576    0.0000 HA        1 <0>         0.0000
     45 H22         3.4678    1.2701    0.0000 HC        1 <0>         0.0000
     46 H23         3.4678    1.2701    0.0000 HC        1 <0>         0.0000
     47 H24         4.1823    0.8576    0.0000 HC        1 <0>         0.0000
     48 H25         4.1823    0.8576    0.0000 HC        1 <0>         0.0000
     49 H26         4.8968    1.2701    0.0000 HC        1 <0>         0.0000
     50 H27         4.8968    1.2701    0.0000 HC        1 <0>         0.0000
     51 H28         5.6112    0.0326    0.0000 HO        1 <0>         0.0000
@<TRIPOS>BOND
     1    1    2 1
     2    2    3 1
     3    3    4 1
     4    4    5 1
     5    5    6 1
     6    6    7 2
     7    7    8 1
     8    8    9 2
     9    9   10 1
    10    9   14 1
    11   10   11 2
    12   12   13 2
    13   10   12 1
    14   13   14 1
    15   14   15 1
    16   14   24 1
    17   15   16 1
    18   16   17 2
    19   17   18 1
    20   18   19 1
    21   19   20 1
    22   20   21 1
    23   21   22 2
    24   21   23 1
    25    1   25 1
    26    1   26 1
    27    1   27 1
    28    2   28 1
    29    2   29 1
    30    3   30 1
    31    3   31 1
    32    4   32 1
    33    4   33 1
    34    5   34 1
    35    5   35 1
    36    6   36 1
    37    7   37 1
    38    8   38 1
    39   12   39 1
    40   13   40 1
    41   15   41 1
    42   15   42 1
    43   16   43 1
    44   17   44 1
    45   18   45 1
    46   18   46 1
    47   19   47 1
    48   19   48 1
    49   20   49 1
    50   20   50 1
    51   23   51 1
@<TRIPOS>MOLECULE
PVC
   70    69     0     0     0
SMALL
NO_CHARGES

@<TRIPOS>ATOM
      1 C1          4.2465    0.1574    0.0000 C         1 <0>         0.0000
      2 O1          4.2465    0.9825    0.0000 O         1 <0>         0.0000
      3 C2          3.5321   -0.2551    0.0000 CT        1 <0>         0.0000
      4 C3          2.8175    0.1574    0.0000 CT        1 <0>         0.0000
      5 C4          2.1030   -0.2551    0.0000 CT        1 <0>         0.0000
      6 C5          1.3884    0.1574    0.0000 CT        1 <0>         0.0000
      7 C6          0.6740   -0.2551    0.0000 CT        1 <0>         0.0000
      8 C7         -0.0406    0.1574    0.0000 CT        1 <0>         0.0000
      9 C8         -0.7552   -0.2551    0.0000 CT        1 <0>         0.0000
     10 C9         -1.4696    0.1574    0.0000 CT        1 <0>         0.0000
     11 C10        -2.1842   -0.2551    0.0000 CT        1 <0>         0.0000
     12 C11        -2.8987    0.1574    0.0000 CT        1 <0>         0.0000
     13 C12        -3.6133   -0.2551    0.0000 CT        1 <0>         0.0000
     14 C13        -4.3277    0.1574    0.0000 CT        1 <0>         0.0000
     15 C14         5.6756    0.1574    0.0000 CT        1 <0>         0.0000
     16 C15         6.3901   -0.2551    0.0000 CT        1 <0>         0.0000
     17 C16         7.1046    0.1574    0.0000 CT        1 <0>         0.0000
     18 C17         7.8192   -0.2551    0.0000 CM        1 <0>         0.0000
     19 C18         8.5336    0.1574    0.0000 CM        1 <0>         0.0000
     20 C19         8.5336    0.9825    0.0000 C         1 <0>         0.0000
     21 O2          9.2482   -0.2551    0.0000 OH        1 <0>         0.0000
     22 O3          7.8192   -1.0802    0.0000 OH        1 <0>         0.0000
     23 O4          7.1046    0.9825    0.0000 OH        1 <0>         0.0000
     24 O5          6.3901   -1.0802    0.0000 OH        1 <0>         0.0000
     25 O6          4.9611   -0.2551    0.0000 OS        1 <0>         0.0000
     26 O7          9.2482    1.3950    0.0000 O         1 <0>         0.0000
     27 O8          7.8192    1.3950    0.0000 OH        1 <0>         0.0000
     28 C20        -5.0423   -0.2551    0.0000 CT        1 <0>         0.0000
     29 C21        -5.7568    0.1574    0.0000 CT        1 <0>         0.0000
     30 C22        -6.4713   -0.2551    0.0000 CT        1 <0>         0.0000
     31 H1          6.3901    0.3288    0.0000 H1        1 <0>         0.0000
     32 H2          7.1046   -0.4266    0.0000 H1        1 <0>         0.0000
     33 H3          3.5321   -0.2551    0.0000 HC        1 <0>         0.0000
     34 H4          3.5321   -0.2551    0.0000 HC        1 <0>         0.0000
     35 H5          2.8175    0.1574    0.0000 HC        1 <0>         0.0000
     36 H6          2.8175    0.1574    0.0000 HC        1 <0>         0.0000
     37 H7          2.1030   -0.2551    0.0000 HC        1 <0>         0.0000
     38 H8          2.1030   -0.2551    0.0000 HC        1 <0>         0.0000
     39 H9          1.3884    0.1574    0.0000 HC        1 <0>         0.0000
     40 H10         1.3884    0.1574    0.0000 HC        1 <0>         0.0000
     41 H11         0.6740   -0.2551    0.0000 HC        1 <0>         0.0000
     42 H12         0.6740   -0.2551    0.0000 HC        1 <0>         0.0000
     43 H13        -0.0406    0.1574    0.0000 HC        1 <0>         0.0000
     44 H14        -0.0406    0.1574    0.0000 HC        1 <0>         0.0000
     45 H15        -0.7552   -0.2551    0.0000 HC        1 <0>         0.0000
     46 H16        -0.7552   -0.2551    0.0000 HC        1 <0>         0.0000
     47 H17        -1.4696    0.1574    0.0000 HC        1 <0>         0.0000
     48 H18        -1.4696    0.1574    0.0000 HC        1 <0>         0.0000
     49 H19        -2.1842   -0.2551    0.0000 HC        1 <0>         0.0000
     50 H20        -2.1842   -0.2551    0.0000 HC        1 <0>         0.0000
     51 H21        -2.8987    0.1574    0.0000 HC        1 <0>         0.0000
     52 H22        -2.8987    0.1574    0.0000 HC        1 <0>         0.0000
     53 H23        -3.6133   -0.2551    0.0000 HC        1 <0>         0.0000
     54 H24        -3.6133   -0.2551    0.0000 HC        1 <0>         0.0000
     55 H25        -4.3277    0.1574    0.0000 HC        1 <0>         0.0000
     56 H26        -4.3277    0.1574    0.0000 HC        1 <0>         0.0000
     57 H27         5.6756    0.1574    0.0000 H1        1 <0>         0.0000
     58 H28         5.6756    0.1574    0.0000 H1        1 <0>         0.0000
     59 H29         9.2482   -0.2551    0.0000 HO        1 <0>         0.0000
     60 H30         7.8192   -1.0802    0.0000 HO        1 <0>         0.0000
     61 H31         7.1046    0.9825    0.0000 HO        1 <0>         0.0000
     62 H32         6.3901   -1.0802    0.0000 HO        1 <0>         0.0000
     63 H33         7.8192    1.3950    0.0000 HO        1 <0>         0.0000
     64 H34        -5.0423   -0.2551    0.0000 HC        1 <0>         0.0000
     65 H35        -5.0423   -0.2551    0.0000 HC        1 <0>         0.0000
     66 H36        -5.7568    0.1574    0.0000 HC        1 <0>         0.0000
     67 H37        -5.7568    0.1574    0.0000 HC        1 <0>         0.0000
     68 H38        -6.4713   -0.2551    0.0000 HC        1 <0>         0.0000
     69 H39        -6.4713   -0.2551    0.0000 HC        1 <0>         0.0000
     70 H40        -6.4713   -0.2551    0.0000 HC        1 <0>         0.0000
@<TRIPOS>BOND
     1    1    2 2
     2    1    3 1
     3    1   25 1
     4    3    4 1
     5    4    5 1
     6    5    6 1
     7    6    7 1
     8    7    8 1
     9    8    9 1
    10    9   10 1
    11   10   11 1
    12   11   12 1
    13   12   13 1
    14   13   14 1
    15   14   28 1
    16   15   16 1
    17   15   25 1
    18   16   17 1
    19   16   24 1
    20   16   31 1
    21   17   18 1
    22   17   23 1
    23   17   32 1
    24   18   19 2
    25   18   22 1
    26   19   20 1
    27   19   21 1
    28   20   26 2
    29   20   27 1
    30   28   29 1
    31   29   30 1
    32    3   33 1
    33    3   34 1
    34    4   35 1
    35    4   36 1
    36    5   37 1
    37    5   38 1
    38    6   39 1
    39    6   40 1
    40    7   41 1
    41    7   42 1
    42    8   43 1
    43    8   44 1
    44    9   45 1
    45    9   46 1
    46   10   47 1
    47   10   48 1
    48   11   49 1
    49   11   50 1
    50   12   51 1
    51   12   52 1
    52   13   53 1
    53   13   54 1
    54   14   55 1
    55   14   56 1
    56   15   57 1
    57   15   58 1
    58   21   59 1
    59   22   60 1
    60   23   61 1
    61   24   62 1
    62   27   63 1
    63   28   64 1
    64   28   65 1
    65   29   66 1
    66   29   67 1
    67   30   68 1
    68   30   69 1
    69   30   70 1
@<TRIPOS>MOLECULE
R12
   46    46     0     0     0
SMALL
NO_CHARGES

@<TRIPOS>ATOM
      1 C1          3.4739    1.0838    0.0000 CA        1 <0>         0.0000
      2 C2          3.4739    0.2588    0.0000 CA        1 <0>         0.0000
      3 C3          2.7595   -0.1537    0.0000 CA        1 <0>         0.0000
      4 C4          2.0450    0.2588    0.0000 CA        1 <0>         0.0000
      5 C5          2.0450    1.0838    0.0000 CA        1 <0>         0.0000
      6 C6          2.7595    1.4963    0.0000 CA        1 <0>         0.0000
      7 C7          1.3305   -0.1537    0.0000 CM        1 <0>         0.0000
      8 C8          0.6161    0.2588    0.0000 CM        1 <0>         0.0000
      9 C9         -0.0984   -0.1537    0.0000 CM        1 <0>         0.0000
     10 C10        -0.8129    0.2588    0.0000 CM        1 <0>         0.0000
     11 C11        -1.5274   -0.1537    0.0000 CM        1 <0>         0.0000
     12 C12        -2.2418    0.2588    0.0000 CM        1 <0>         0.0000
     13 C13        -2.9563   -0.1537    0.0000 CT        1 <0>         0.0000
     14 C14        -2.9563   -0.9787    0.0000 CT        1 <0>         0.0000
     15 C15        -3.6708   -1.3912    0.0000 C         1 <0>         0.0000
     16 C16        -3.6708    0.2588    0.0000 CT        1 <0>         0.0000
     17 C17        -0.0984   -0.9787    0.0000 CT        1 <0>         0.0000
     18 C18         1.3305    1.4963    0.0000 CT        1 <0>         0.0000
     19 C19         2.7595   -0.9787    0.0000 CT        1 <0>         0.0000
     20 O1          4.1884    1.4963    0.0000 OH        1 <0>         0.0000
     21 O2         -3.6708   -2.2162    0.0000 O         1 <0>         0.0000
     22 O3         -4.3852   -0.9787    0.0000 OH        1 <0>         0.0000
     23 H1         -2.4506   -0.4457    0.0000 HC        1 <0>         0.0000
     24 H2          3.4739    0.2588    0.0000 HA        1 <0>         0.0000
     25 H3          2.7595    1.4963    0.0000 HA        1 <0>         0.0000
     26 H4          1.3305   -0.1537    0.0000 HA        1 <0>         0.0000
     27 H5          0.6161    0.2588    0.0000 HA        1 <0>         0.0000
     28 H6         -0.8129    0.2588    0.0000 HA        1 <0>         0.0000
     29 H7         -1.5274   -0.1537    0.0000 HA        1 <0>         0.0000
     30 H8         -2.2418    0.2588    0.0000 HA        1 <0>         0.0000
     31 H9         -2.9563   -0.9787    0.0000 HC        1 <0>         0.0000
     32 H10        -2.9563   -0.9787    0.0000 HC        1 <0>         0.0000
     33 H11        -3.6708    0.2588    0.0000 HC        1 <0>         0.0000
     34 H12        -3.6708    0.2588    0.0000 HC        1 <0>         0.0000
     35 H13        -3.6708    0.2588    0.0000 HC        1 <0>         0.0000
     36 H14        -0.0984   -0.9787    0.0000 HC        1 <0>         0.0000
     37 H15        -0.0984   -0.9787    0.0000 HC        1 <0>         0.0000
     38 H16        -0.0984   -0.9787    0.0000 HC        1 <0>         0.0000
     39 H17         1.3305    1.4963    0.0000 HC        1 <0>         0.0000
     40 H18         1.3305    1.4963    0.0000 HC        1 <0>         0.0000
     41 H19         1.3305    1.4963    0.0000 HC        1 <0>         0.0000
     42 H20         2.7595   -0.9787    0.0000 HC        1 <0>         0.0000
     43 H21         2.7595   -0.9787    0.0000 HC        1 <0>         0.0000
     44 H22         2.7595   -0.9787    0.0000 HC        1 <0>         0.0000
     45 H23         4.1884    1.4963    0.0000 HO        1 <0>         0.0000
     46 H24        -4.3852   -0.9787    0.0000 HO        1 <0>         0.0000
@<TRIPOS>BOND
     1    1    2 ar
     2    1    6 ar
     3    1   20 1
     4    2    3 ar
     5    3    4 ar
     6    3   19 1
     7    4    5 ar
     8    4    7 1
     9    5    6 ar
    10    5   18 1
    11    7    8 2
    12    8    9 1
    13    9   10 2
    14    9   17 1
    15   10   11 1
    16   11   12 2
    17   12   13 1
    18   13   14 1
    19   13   16 1
    20   13   23 1
    21   14   15 1
    22   15   21 2
    23   15   22 1
    24    2   24 1
    25    6   25 1
    26    7   26 1
    27    8   27 1
    28   10   28 1
    29   11   29 1
    30   12   30 1
    31   14   31 1
    32   14   32 1
    33   16   33 1
    34   16   34 1
    35   16   35 1
    36   17   36 1
    37   17   37 1
    38   17   38 1
    39   18   39 1
    40   18   40 1
    41   18   41 1
    42   19   42 1
    43   19   43 1
    44   19   44 1
    45   20   45 1
    46   22   46 1
@<TRIPOS>MOLECULE
RE2
   31    32     0     0     0
SMALL
NO_CHARGES

@<TRIPOS>ATOM
      1 C1         -1.7998    1.4238    0.0000 CA        1 <0>         0.0000
      2 C2         -2.5143    1.0113    0.0000 CA        1 <0>         0.0000
      3 C3         -2.5143    0.1863    0.0000 CA        1 <0>         0.0000
      4 C4          0.3436    0.1863    0.0000 CT        1 <0>         0.0000
      5 C5         -0.3709   -0.2262    0.0000 CT        1 <0>         0.0000
      6 C6         -1.7998   -0.2262    0.0000 CA        1 <0>         0.0000
      7 C7         -1.0853    0.1863    0.0000 CA        1 <0>         0.0000
      8 C8         -1.0853    1.0113    0.0000 CA        1 <0>         0.0000
      9 O1         -3.2288   -0.2262    0.0000 OH        1 <0>         0.0000
     10 O2         -1.7998    2.2488    0.0000 OH        1 <0>         0.0000
     11 C9          1.0581   -0.2262    0.0000 CA        1 <0>         0.0000
     12 C10         1.7725    0.1863    0.0000 CA        1 <0>         0.0000
     13 C11         2.4870   -0.2262    0.0000 CA        1 <0>         0.0000
     14 C12         2.4870   -1.0512    0.0000 CA        1 <0>         0.0000
     15 O3          3.2015   -1.4637    0.0000 OH        1 <0>         0.0000
     16 C13         1.7725   -1.4637    0.0000 CA        1 <0>         0.0000
     17 C14         1.0581   -1.0512    0.0000 CA        1 <0>         0.0000
     18 H1         -2.5143    1.0113    0.0000 HA        1 <0>         0.0000
     19 H2          0.3436    0.1863    0.0000 HC        1 <0>         0.0000
     20 H3          0.3436    0.1863    0.0000 HC        1 <0>         0.0000
     21 H4         -0.3709   -0.2262    0.0000 HC        1 <0>         0.0000
     22 H5         -0.3709   -0.2262    0.0000 HC        1 <0>         0.0000
     23 H6         -1.7998   -0.2262    0.0000 HA        1 <0>         0.0000
     24 H7         -1.0853    1.0113    0.0000 HA        1 <0>         0.0000
     25 H8         -3.2288   -0.2262    0.0000 HO        1 <0>         0.0000
     26 H9         -1.7998    2.2488    0.0000 HO        1 <0>         0.0000
     27 H10         1.7725    0.1863    0.0000 HA        1 <0>         0.0000
     28 H11         2.4870   -0.2262    0.0000 HA        1 <0>         0.0000
     29 H12         3.2015   -1.4637    0.0000 HO        1 <0>         0.0000
     30 H13         1.7725   -1.4637    0.0000 HA        1 <0>         0.0000
     31 H14         1.0581   -1.0512    0.0000 HA        1 <0>         0.0000
@<TRIPOS>BOND
     1    1    8 ar
     2    1    2 ar
     3    2    3 ar
     4    3    6 ar
     5    4   11 1
     6    4    5 1
     7    6    7 ar
     8    5    7 1
     9    7    8 ar
    10    3    9 1
    11    1   10 1
    12   11   12 ar
    13   12   13 ar
    14   13   14 ar
    15   14   15 1
    16   14   16 ar
    17   11   17 ar
    18   16   17 ar
    19    2   18 1
    20    4   19 1
    21    4   20 1
    22    5   21 1
    23    5   22 1
    24    6   23 1
    25    8   24 1
    26    9   25 1
    27   10   26 1
    28   12   27 1
    29   13   28 1
    30   15   29 1
    31   16   30 1
    32   17   31 1
@<TRIPOS>MOLECULE
RE9
   50    51     0     0     0
SMALL
NO_CHARGES

@<TRIPOS>ATOM
      1 C1          1.6381    1.4182    0.0000 CT        1 <0>         0.0000
      2 C2          2.3526    1.0057    0.0000 CT        1 <0>         0.0000
      3 C3          2.3526    0.1807    0.0000 CT        1 <0>         0.0000
      4 C4          1.6381   -0.2318    0.0000 CT        1 <0>         0.0000
      5 C5          0.9237    0.1807    0.0000 CM        1 <0>         0.0000
      6 C6          0.1390   -0.0742    0.0000 CM        1 <0>         0.0000
      7 C7         -0.3459    0.5932    0.0000 CT        1 <0>         0.0000
      8 C8          0.1390    1.2606    0.0000 CT        1 <0>         0.0000
      9 C9          0.9237    1.0057    0.0000 CM        1 <0>         0.0000
     10 C10        -1.0646    0.1882    0.0000 CT        1 <0>         0.0000
     11 C11        -1.0733   -0.6368    0.0000 CM        1 <0>         0.0000
     12 C12        -1.7920   -1.0418    0.0000 CM        1 <0>         0.0000
     13 C13        -1.8007   -1.8667    0.0000 CM        1 <0>         0.0000
     14 C14        -2.5194   -2.2717    0.0000 CM        1 <0>         0.0000
     15 C15        -2.5281   -3.0967    0.0000 C         1 <0>         0.0000
     16 C16         2.0254    2.1466    0.0000 CT        1 <0>         0.0000
     17 C17         1.2508    2.1466    0.0000 CT        1 <0>         0.0000
     18 C18        -0.1159   -0.8589    0.0000 CM        1 <0>         0.0000
     19 C19        -1.0646    0.9982    0.0000 CT        1 <0>         0.0000
     20 C20        -1.0906   -2.2867    0.0000 CT        1 <0>         0.0000
     21 O1         -1.8179   -3.5166    0.0000 O         1 <0>         0.0000
     22 O2         -3.2468   -3.5017    0.0000 OH        1 <0>         0.0000
     23 H1          2.3526    1.0057    0.0000 HC        1 <0>         0.0000
     24 H2          2.3526    1.0057    0.0000 HC        1 <0>         0.0000
     25 H3          2.3526    0.1807    0.0000 HC        1 <0>         0.0000
     26 H4          2.3526    0.1807    0.0000 HC        1 <0>         0.0000
     27 H5          1.6381   -0.2318    0.0000 HC        1 <0>         0.0000
     28 H6          1.6381   -0.2318    0.0000 HC        1 <0>         0.0000
     29 H7          0.1390    1.2606    0.0000 HC        1 <0>         0.0000
     30 H8          0.1390    1.2606    0.0000 HC        1 <0>         0.0000
     31 H9         -1.0646    0.1882    0.0000 HC        1 <0>         0.0000
     32 H10        -1.0646    0.1882    0.0000 HC        1 <0>         0.0000
     33 H11        -1.0733   -0.6368    0.0000 HA        1 <0>         0.0000
     34 H12        -1.7920   -1.0418    0.0000 HA        1 <0>         0.0000
     35 H13        -2.5194   -2.2717    0.0000 HA        1 <0>         0.0000
     36 H14         2.0254    2.1466    0.0000 HC        1 <0>         0.0000
     37 H15         2.0254    2.1466    0.0000 HC        1 <0>         0.0000
     38 H16         2.0254    2.1466    0.0000 HC        1 <0>         0.0000
     39 H17         1.2508    2.1466    0.0000 HC        1 <0>         0.0000
     40 H18         1.2508    2.1466    0.0000 HC        1 <0>         0.0000
     41 H19         1.2508    2.1466    0.0000 HC        1 <0>         0.0000
     42 H20        -0.1159   -0.8589    0.0000 HA        1 <0>         0.0000
     43 H21        -0.1159   -0.8589    0.0000 HA        1 <0>         0.0000
     44 H22        -1.0646    0.9982    0.0000 HC        1 <0>         0.0000
     45 H23        -1.0646    0.9982    0.0000 HC        1 <0>         0.0000
     46 H24        -1.0646    0.9982    0.0000 HC        1 <0>         0.0000
     47 H25        -1.0906   -2.2867    0.0000 HC        1 <0>         0.0000
     48 H26        -1.0906   -2.2867    0.0000 HC        1 <0>         0.0000
     49 H27        -1.0906   -2.2867    0.0000 HC        1 <0>         0.0000
     50 H28        -3.2468   -3.5017    0.0000 HO        1 <0>         0.0000
@<TRIPOS>BOND
     1    1    2 1
     2    1    9 1
     3    1   16 1
     4    1   17 1
     5    2    3 1
     6    3    4 1
     7    4    5 1
     8    5    6 1
     9    5    9 2
    10    6    7 1
    11    6   18 2
    12    7    8 1
    13    7   10 1
    14    7   19 1
    15    8    9 1
    16   10   11 1
    17   11   12 2
    18   12   13 1
    19   13   14 2
    20   13   20 1
    21   14   15 1
    22   15   21 2
    23   15   22 1
    24    2   23 1
    25    2   24 1
    26    3   25 1
    27    3   26 1
    28    4   27 1
    29    4   28 1
    30    8   29 1
    31    8   30 1
    32   10   31 1
    33   10   32 1
    34   11   33 1
    35   12   34 1
    36   14   35 1
    37   16   36 1
    38   16   37 1
    39   16   38 1
    40   17   39 1
    41   17   40 1
    42   17   41 1
    43   18   42 1
    44   18   43 1
    45   19   44 1
    46   19   45 1
    47   19   46 1
    48   20   47 1
    49   20   48 1
    50   20   49 1
    51   22   50 1
@<TRIPOS>MOLECULE
RS7
   39    39     0     0     0
SMALL
NO_CHARGES

@<TRIPOS>ATOM
      1 C1         -1.9089   -0.7083    0.0000 C         1 <0>         0.0000
      2 O1         -1.9089    0.1167    0.0000 O         1 <0>         0.0000
      3 O2         -1.1944   -1.1208    0.0000 OH        1 <0>         0.0000
      4 C2         -2.6233   -1.1208    0.0000 CM        1 <0>         0.0000
      5 C3         -2.6233   -1.9458    0.0000 CM        1 <0>         0.0000
      6 C4         -3.3378   -2.3583    0.0000 CA        1 <0>         0.0000
      7 C5         -4.0523   -1.9458    0.0000 CA        1 <0>         0.0000
      8 C6         -4.7667   -2.3583    0.0000 CA        1 <0>         0.0000
      9 C7         -4.7667   -3.1833    0.0000 CA        1 <0>         0.0000
     10 C8         -4.0523   -3.5958    0.0000 CA        1 <0>         0.0000
     11 C9         -3.3378   -3.1833    0.0000 CA        1 <0>         0.0000
     12 C10        -2.6233   -3.5958    0.0000 C2        1 <0>         0.0000
     13 C11        -1.9089   -4.0083    0.0000 C2        1 <0>         0.0000
     14 C12        -1.1944   -4.4208    0.0000 CT        1 <0>         0.0000
     15 C13        -0.4799   -4.0083    0.0000 CT        1 <0>         0.0000
     16 C14         0.2346   -4.4208    0.0000 CT        1 <0>         0.0000
     17 C15         0.9490   -4.0083    0.0000 CT        1 <0>         0.0000
     18 C16         1.6635   -4.4208    0.0000 CT        1 <0>         0.0000
     19 C17         2.3780   -4.0083    0.0000 CT        1 <0>         0.0000
     20 H1         -1.1944   -1.1208    0.0000 HO        1 <0>         0.0000
     21 H2         -2.6233   -1.1208    0.0000 HA        1 <0>         0.0000
     22 H3         -2.6233   -1.9458    0.0000 HA        1 <0>         0.0000
     23 H4         -4.0523   -1.9458    0.0000 HA        1 <0>         0.0000
     24 H5         -4.7667   -2.3583    0.0000 HA        1 <0>         0.0000
     25 H6         -4.7667   -3.1833    0.0000 HA        1 <0>         0.0000
     26 H7         -4.0523   -3.5958    0.0000 HA        1 <0>         0.0000
     27 H8         -1.1944   -4.4208    0.0000 HC        1 <0>         0.0000
     28 H9         -1.1944   -4.4208    0.0000 HC        1 <0>         0.0000
     29 H10        -0.4799   -4.0083    0.0000 HC        1 <0>         0.0000
     30 H11        -0.4799   -4.0083    0.0000 HC        1 <0>         0.0000
     31 H12         0.2346   -4.4208    0.0000 HC        1 <0>         0.0000
     32 H13         0.2346   -4.4208    0.0000 HC        1 <0>         0.0000
     33 H14         0.9490   -4.0083    0.0000 HC        1 <0>         0.0000
     34 H15         0.9490   -4.0083    0.0000 HC        1 <0>         0.0000
     35 H16         1.6635   -4.4208    0.0000 HC        1 <0>         0.0000
     36 H17         1.6635   -4.4208    0.0000 HC        1 <0>         0.0000
     37 H18         2.3780   -4.0083    0.0000 HC        1 <0>         0.0000
     38 H19         2.3780   -4.0083    0.0000 HC        1 <0>         0.0000
     39 H20         2.3780   -4.0083    0.0000 HC        1 <0>         0.0000
@<TRIPOS>BOND
     1    1    4 1
     2    1    2 2
     3    1    3 1
     4    4    5 2
     5    5    6 1
     6    6   11 ar
     7    6    7 ar
     8    7    8 ar
     9    8    9 ar
    10    9   10 ar
    11   11   12 1
    12   10   11 ar
    13   12   13 3
    14   13   14 1
    15   14   15 1
    16   15   16 1
    17   16   17 1
    18   17   18 1
    19   18   19 1
    20    3   20 1
    21    4   21 1
    22    5   22 1
    23    7   23 1
    24    8   24 1
    25    9   25 1
    26   10   26 1
    27   14   27 1
    28   14   28 1
    29   15   29 1
    30   15   30 1
    31   16   31 1
    32   16   32 1
    33   17   33 1
    34   17   34 1
    35   18   35 1
    36   18   36 1
    37   19   37 1
    38   19   38 1
    39   19   39 1
@<TRIPOS>MOLECULE
S5H
   68    71     0     0     0
SMALL
NO_CHARGES

@<TRIPOS>ATOM
      1 C1          0.1207   -1.1614    0.0000 CT        1 <0>         0.0000
      2 C2          0.8352   -1.5739    0.0000 CT        1 <0>         0.0000
      3 C3          1.5496   -1.1614    0.0000 CT        1 <0>         0.0000
      4 O1          2.2641   -1.5739    0.0000 OS        1 <0>         0.0000
      5 C4          1.5496   -0.3364    0.0000 CT        1 <0>         0.0000
      6 C5          0.8352    0.0761    0.0000 CT        1 <0>         0.0000
      7 C6          0.8352    0.9011    0.0000 CT        1 <0>         0.0000
      8 C7          0.1207    1.3136    0.0000 CT        1 <0>         0.0000
      9 C8         -0.5938    0.9011    0.0000 CT        1 <0>         0.0000
     10 C9         -0.5938    0.0761    0.0000 CT        1 <0>         0.0000
     11 C10         0.1207   -0.3364    0.0000 CT        1 <0>         0.0000
     12 C11        -1.3083   -0.3364    0.0000 CT        1 <0>         0.0000
     13 C12        -2.0227    0.0761    0.0000 CT        1 <0>         0.0000
     14 C13        -2.0227    0.9011    0.0000 CT        1 <0>         0.0000
     15 C14        -1.3083    1.3136    0.0000 CT        1 <0>         0.0000
     16 C15        -1.4798    2.1206    0.0000 CT        1 <0>         0.0000
     17 C16        -2.3003    2.2068    0.0000 CT        1 <0>         0.0000
     18 C17        -2.6358    1.4532    0.0000 CT        1 <0>         0.0000
     19 C18        -2.7764    0.5656    0.0000 CT        1 <0>         0.0000
     20 C19        -0.5938   -0.7489    0.0000 CT        1 <0>         0.0000
     21 C20        -3.4428    1.2816    0.0000 C         1 <0>         0.0000
     22 O2         -3.9948    1.8947    0.0000 O         1 <0>         0.0000
     23 C21        -3.6977    0.4970    0.0000 CT        1 <0>         0.0000
     24 C22         2.9786   -1.1614    0.0000 C         1 <0>         0.0000
     25 O3          2.9786   -0.3364    0.0000 O         1 <0>         0.0000
     26 C23         3.6930   -1.5739    0.0000 CT        1 <0>         0.0000
     27 C24         4.4075   -1.1614    0.0000 CT        1 <0>         0.0000
     28 C25         5.1220   -1.5739    0.0000 C         1 <0>         0.0000
     29 O4          5.8365   -1.1614    0.0000 O         1 <0>         0.0000
     30 O5          5.1220   -2.3989    0.0000 OH        1 <0>         0.0000
     31 H1          1.5496   -1.7453    0.0000 H1        1 <0>         0.0000
     32 H2          1.3409    0.3681    0.0000 HC        1 <0>         0.0000
     33 H3         -0.5938    1.4851    0.0000 HC        1 <0>         0.0000
     34 H4         -0.7935   -0.4726    0.0000 HC        1 <0>         0.0000
     35 H5         -0.8358    1.6569    0.0000 HC        1 <0>         0.0000
     36 H6         -2.7869    0.8891    0.0000 HC        1 <0>         0.0000
     37 H7          0.1207   -1.1614    0.0000 HC        1 <0>         0.0000
     38 H8          0.1207   -1.1614    0.0000 HC        1 <0>         0.0000
     39 H9          0.8352   -1.5739    0.0000 HC        1 <0>         0.0000
     40 H10         0.8352   -1.5739    0.0000 HC        1 <0>         0.0000
     41 H11         1.5496   -0.3364    0.0000 HC        1 <0>         0.0000
     42 H12         1.5496   -0.3364    0.0000 HC        1 <0>         0.0000
     43 H13         0.8352    0.9011    0.0000 HC        1 <0>         0.0000
     44 H14         0.8352    0.9011    0.0000 HC        1 <0>         0.0000
     45 H15         0.1207    1.3136    0.0000 HC        1 <0>         0.0000
     46 H16         0.1207    1.3136    0.0000 HC        1 <0>         0.0000
     47 H17        -1.3083   -0.3364    0.0000 HC        1 <0>         0.0000
     48 H18        -1.3083   -0.3364    0.0000 HC        1 <0>         0.0000
     49 H19        -2.0227    0.0761    0.0000 HC        1 <0>         0.0000
     50 H20        -2.0227    0.0761    0.0000 HC        1 <0>         0.0000
     51 H21        -1.4798    2.1206    0.0000 HC        1 <0>         0.0000
     52 H22        -1.4798    2.1206    0.0000 HC        1 <0>         0.0000
     53 H23        -2.3003    2.2068    0.0000 HC        1 <0>         0.0000
     54 H24        -2.3003    2.2068    0.0000 HC        1 <0>         0.0000
     55 H25        -2.7764    0.5656    0.0000 HC        1 <0>         0.0000
     56 H26        -2.7764    0.5656    0.0000 HC        1 <0>         0.0000
     57 H27        -2.7764    0.5656    0.0000 HC        1 <0>         0.0000
     58 H28        -0.5938   -0.7489    0.0000 HC        1 <0>         0.0000
     59 H29        -0.5938   -0.7489    0.0000 HC        1 <0>         0.0000
     60 H30        -0.5938   -0.7489    0.0000 HC        1 <0>         0.0000
     61 H31        -3.6977    0.4970    0.0000 HC        1 <0>         0.0000
     62 H32        -3.6977    0.4970    0.0000 HC        1 <0>         0.0000
     63 H33        -3.6977    0.4970    0.0000 HC        1 <0>         0.0000
     64 H34         3.6930   -1.5739    0.0000 HC        1 <0>         0.0000
     65 H35         3.6930   -1.5739    0.0000 HC        1 <0>         0.0000
     66 H36         4.4075   -1.1614    0.0000 HC        1 <0>         0.0000
     67 H37         4.4075   -1.1614    0.0000 HC        1 <0>         0.0000
     68 H38         5.1220   -2.3989    0.0000 HO        1 <0>         0.0000
@<TRIPOS>BOND
     1    1    2 1
     2    1   11 1
     3    2    3 1
     4    3    4 1
     5    3    5 1
     6    3   31 1
     7    4   24 1
     8    5    6 1
     9    6    7 1
    10    6   11 1
    11    6   32 1
    12    7    8 1
    13    8    9 1
    14    9   10 1
    15    9   15 1
    16    9   33 1
    17   10   11 1
    18   10   12 1
    19   10   34 1
    20   11   20 1
    21   12   13 1
    22   13   14 1
    23   14   15 1
    24   14   18 1
    25   14   19 1
    26   15   16 1
    27   15   35 1
    28   16   17 1
    29   17   18 1
    30   18   21 1
    31   18   36 1
    32   21   22 2
    33   21   23 1
    34   24   25 2
    35   24   26 1
    36   26   27 1
    37   27   28 1
    38   28   29 2
    39   28   30 1
    40    1   37 1
    41    1   38 1
    42    2   39 1
    43    2   40 1
    44    5   41 1
    45    5   42 1
    46    7   43 1
    47    7   44 1
    48    8   45 1
    49    8   46 1
    50   12   47 1
    51   12   48 1
    52   13   49 1
    53   13   50 1
    54   16   51 1
    55   16   52 1
    56   17   53 1
    57   17   54 1
    58   19   55 1
    59   19   56 1
    60   19   57 1
    61   20   58 1
    62   20   59 1
    63   20   60 1
    64   23   61 1
    65   23   62 1
    66   23   63 1
    67   26   64 1
    68   26   65 1
    69   27   66 1
    70   27   67 1
    71   30   68 1
@<TRIPOS>MOLECULE
SAK
   35    37     0     0     0
SMALL
NO_CHARGES

@<TRIPOS>ATOM
      1 C1         -2.0095   -0.1151    0.0000 CA        1 <0>         0.0000
      2 C2         -2.7240    0.2974    0.0000 CA        1 <0>         0.0000
      3 C3         -2.7240    1.1224    0.0000 CA        1 <0>         0.0000
      4 O1         -3.4385    1.5349    0.0000 OH        1 <0>         0.0000
      5 C4         -2.0095    1.5349    0.0000 CA        1 <0>         0.0000
      6 C5         -1.2950    1.1224    0.0000 CA        1 <0>         0.0000
      7 C6         -1.2950    0.2974    0.0000 CA        1 <0>         0.0000
      8 C7         -0.5806   -0.1151    0.0000 CT        1 <0>         0.0000
      9 O2          0.1339    0.2974    0.0000 OS        1 <0>         0.0000
     10 C8         -0.5806   -0.9401    0.0000 CT        1 <0>         0.0000
     11 C9          0.1339   -1.3526    0.0000 C         1 <0>         0.0000
     12 O3          0.1339   -2.1776    0.0000 O         1 <0>         0.0000
     13 C10         0.8484   -0.9401    0.0000 CA        1 <0>         0.0000
     14 C11         0.8484   -0.1151    0.0000 CA        1 <0>         0.0000
     15 C12         1.5628    0.2974    0.0000 CA        1 <0>         0.0000
     16 C13         2.2773   -0.1151    0.0000 CA        1 <0>         0.0000
     17 O4          2.9918    0.2974    0.0000 OS        1 <0>         0.0000
     18 C14         2.9918    1.1224    0.0000 CT        1 <0>         0.0000
     19 C15         2.2773   -0.9401    0.0000 CA        1 <0>         0.0000
     20 C16         1.5628   -1.3526    0.0000 CA        1 <0>         0.0000
     21 O5          1.5628   -2.1776    0.0000 OH        1 <0>         0.0000
     22 H1         -0.5806    0.4688    0.0000 H1        1 <0>         0.0000
     23 H2         -2.0095   -0.1151    0.0000 HA        1 <0>         0.0000
     24 H3         -2.7240    0.2974    0.0000 HA        1 <0>         0.0000
     25 H4         -3.4385    1.5349    0.0000 HO        1 <0>         0.0000
     26 H5         -2.0095    1.5349    0.0000 HA        1 <0>         0.0000
     27 H6         -1.2950    1.1224    0.0000 HA        1 <0>         0.0000
     28 H7         -0.5806   -0.9401    0.0000 HC        1 <0>         0.0000
     29 H8         -0.5806   -0.9401    0.0000 HC        1 <0>         0.0000
     30 H9          1.5628    0.2974    0.0000 HA        1 <0>         0.0000
     31 H10         2.9918    1.1224    0.0000 H1        1 <0>         0.0000
     32 H11         2.9918    1.1224    0.0000 H1        1 <0>         0.0000
     33 H12         2.9918    1.1224    0.0000 H1        1 <0>         0.0000
     34 H13         2.2773   -0.9401    0.0000 HA        1 <0>         0.0000
     35 H14         1.5628   -2.1776    0.0000 HO        1 <0>         0.0000
@<TRIPOS>BOND
     1    1    2 ar
     2    1    7 ar
     3    2    3 ar
     4    3    4 1
     5    3    5 ar
     6    5    6 ar
     7    6    7 ar
     8    7    8 1
     9    8    9 1
    10    8   10 1
    11    8   22 1
    12    9   14 1
    13   10   11 1
    14   11   12 2
    15   11   13 1
    16   13   14 ar
    17   13   20 ar
    18   14   15 ar
    19   15   16 ar
    20   16   17 1
    21   16   19 ar
    22   17   18 1
    23   19   20 ar
    24   20   21 1
    25    1   23 1
    26    2   24 1
    27    4   25 1
    28    5   26 1
    29    6   27 1
    30   10   28 1
    31   10   29 1
    32   15   30 1
    33   18   31 1
    34   18   32 1
    35   18   33 1
    36   19   34 1
    37   21   35 1
@<TRIPOS>MOLECULE
SDN
   35    37     0     0     0
SMALL
NO_CHARGES

@<TRIPOS>ATOM
      1 O1          2.0309   -1.6668    0.0000 OH        1 <0>         0.0000
      2 C1          2.0309   -0.8418    0.0000 CA        1 <0>         0.0000
      3 C2          1.3164   -0.4293    0.0000 CB        1 <0>         0.0000
      4 C3          0.6020   -0.8418    0.0000 C         1 <0>         0.0000
      5 O2          0.6020   -1.6668    0.0000 O         1 <0>         0.0000
      6 C4         -0.1125   -0.4293    0.0000 CA        1 <0>         0.0000
      7 C5         -0.8270   -0.8418    0.0000 CM        1 <0>         0.0000
      8 O3         -1.5414   -0.4293    0.0000 OS        1 <0>         0.0000
      9 C6         -0.8270   -1.6668    0.0000 CT        1 <0>         0.0000
     10 C7          2.7454   -0.4293    0.0000 CA        1 <0>         0.0000
     11 C8          2.7454    0.3957    0.0000 CA        1 <0>         0.0000
     12 C9          2.0309    0.8082    0.0000 CA        1 <0>         0.0000
     13 C10         1.3164    0.3957    0.0000 CB        1 <0>         0.0000
     14 C11         0.6020    0.8082    0.0000 CA        1 <0>         0.0000
     15 C12        -0.1125    0.3957    0.0000 CA        1 <0>         0.0000
     16 C13        -0.8270    0.8082    0.0000 CT        1 <0>         0.0000
     17 C14        -1.5414    0.3957    0.0000 CT        1 <0>         0.0000
     18 C15        -2.2559    0.8082    0.0000 CT        1 <0>         0.0000
     19 C16        -2.2559    1.6332    0.0000 C         1 <0>         0.0000
     20 O4         -2.9704    2.0457    0.0000 O         1 <0>         0.0000
     21 O5         -1.5414    2.0457    0.0000 OH        1 <0>         0.0000
     22 H1         -1.5414    0.9797    0.0000 H1        1 <0>         0.0000
     23 H2          2.0309   -1.6668    0.0000 HO        1 <0>         0.0000
     24 H3         -0.8270   -1.6668    0.0000 HC        1 <0>         0.0000
     25 H4         -0.8270   -1.6668    0.0000 HC        1 <0>         0.0000
     26 H5         -0.8270   -1.6668    0.0000 HC        1 <0>         0.0000
     27 H6          2.7454   -0.4293    0.0000 HA        1 <0>         0.0000
     28 H7          2.7454    0.3957    0.0000 HA        1 <0>         0.0000
     29 H8          2.0309    0.8082    0.0000 HA        1 <0>         0.0000
     30 H9          0.6020    0.8082    0.0000 HA        1 <0>         0.0000
     31 H10        -0.8270    0.8082    0.0000 HC        1 <0>         0.0000
     32 H11        -0.8270    0.8082    0.0000 HC        1 <0>         0.0000
     33 H12        -2.2559    0.8082    0.0000 HC        1 <0>         0.0000
     34 H13        -2.2559    0.8082    0.0000 HC        1 <0>         0.0000
     35 H14        -1.5414    2.0457    0.0000 HO        1 <0>         0.0000
@<TRIPOS>BOND
     1    1    2 1
     2    2    3 ar
     3    3    4 1
     4    4    5 2
     5    4    6 1
     6    6    7 2
     7    7    9 1
     8    7    8 1
     9    2   10 ar
    10   10   11 ar
    11   11   12 ar
    12   12   13 ar
    13    3   13 ar
    14   13   14 1
    15   14   15 2
    16    6   15 1
    17   15   16 1
    18   16   17 1
    19    8   17 1
    20   17   18 1
    21   17   22 1
    22   18   19 1
    23   19   20 2
    24   19   21 1
    25    1   23 1
    26    9   24 1
    27    9   25 1
    28    9   26 1
    29   10   27 1
    30   11   28 1
    31   12   29 1
    32   14   30 1
    33   16   31 1
    34   16   32 1
    35   18   33 1
    36   18   34 1
    37   21   35 1
@<TRIPOS>MOLECULE
SDT
   47    49     0     0     0
SMALL
NO_CHARGES

@<TRIPOS>ATOM
      1 O1         -1.7851    2.7660    0.0000 O         1 <0>         0.0000
      2 C1         -1.5301    1.9814    0.0000 C         1 <0>         0.0000
      3 C2         -2.0151    1.3140    0.0000 CT        1 <0>         0.0000
      4 C3         -1.5301    0.6465    0.0000 CT        1 <0>         0.0000
      5 C4         -0.7455    0.9015    0.0000 CT        1 <0>         0.0000
      6 C5         -0.7455    1.7265    0.0000 CT        1 <0>         0.0000
      7 C6         -0.8317    2.5469    0.0000 CT        1 <0>         0.0000
      8 C7         -0.0310    2.1390    0.0000 CT        1 <0>         0.0000
      9 C8          0.6834    1.7265    0.0000 CT        1 <0>         0.0000
     10 C9         -0.0310    0.4890    0.0000 CT        1 <0>         0.0000
     11 C10         0.6834    0.9015    0.0000 C         1 <0>         0.0000
     12 O2          1.3979    0.4890    0.0000 O         1 <0>         0.0000
     13 C11        -0.0310   -0.3360    0.0000 CT        1 <0>         0.0000
     14 C12         0.6834   -0.7485    0.0000 CT        1 <0>         0.0000
     15 C13         0.6834   -1.5735    0.0000 CA        1 <0>         0.0000
     16 C14         1.3979   -1.9860    0.0000 CA        1 <0>         0.0000
     17 O3          2.1124   -1.5735    0.0000 OH        1 <0>         0.0000
     18 C15         1.3979   -2.8110    0.0000 CA        1 <0>         0.0000
     19 O4          2.1124   -3.2235    0.0000 OH        1 <0>         0.0000
     20 C16         0.6834   -3.2235    0.0000 CA        1 <0>         0.0000
     21 C17        -0.0310   -2.8110    0.0000 CA        1 <0>         0.0000
     22 C18        -0.0310   -1.9860    0.0000 CA        1 <0>         0.0000
     23 C19        -0.7455   -1.5735    0.0000 CT        1 <0>         0.0000
     24 H1         -0.8065    0.3207    0.0000 HC        1 <0>         0.0000
     25 H2         -0.5367    0.1970    0.0000 HC        1 <0>         0.0000
     26 H3         -2.0151    1.3140    0.0000 HC        1 <0>         0.0000
     27 H4         -2.0151    1.3140    0.0000 HC        1 <0>         0.0000
     28 H5         -1.5301    0.6465    0.0000 HC        1 <0>         0.0000
     29 H6         -1.5301    0.6465    0.0000 HC        1 <0>         0.0000
     30 H7         -0.8317    2.5469    0.0000 HC        1 <0>         0.0000
     31 H8         -0.8317    2.5469    0.0000 HC        1 <0>         0.0000
     32 H9         -0.8317    2.5469    0.0000 HC        1 <0>         0.0000
     33 H10        -0.0310    2.1390    0.0000 HC        1 <0>         0.0000
     34 H11        -0.0310    2.1390    0.0000 HC        1 <0>         0.0000
     35 H12         0.6834    1.7265    0.0000 HC        1 <0>         0.0000
     36 H13         0.6834    1.7265    0.0000 HC        1 <0>         0.0000
     37 H14        -0.0310   -0.3360    0.0000 HC        1 <0>         0.0000
     38 H15        -0.0310   -0.3360    0.0000 HC        1 <0>         0.0000
     39 H16         0.6834   -0.7485    0.0000 HC        1 <0>         0.0000
     40 H17         0.6834   -0.7485    0.0000 HC        1 <0>         0.0000
     41 H18         2.1124   -1.5735    0.0000 HO        1 <0>         0.0000
     42 H19         2.1124   -3.2235    0.0000 HO        1 <0>         0.0000
     43 H20         0.6834   -3.2235    0.0000 HA        1 <0>         0.0000
     44 H21        -0.0310   -2.8110    0.0000 HA        1 <0>         0.0000
     45 H22        -0.7455   -1.5735    0.0000 HC        1 <0>         0.0000
     46 H23        -0.7455   -1.5735    0.0000 HC        1 <0>         0.0000
     47 H24        -0.7455   -1.5735    0.0000 HC        1 <0>         0.0000
@<TRIPOS>BOND
     1    1    2 2
     2    2    3 1
     3    2    6 1
     4    3    4 1
     5    4    5 1
     6    5    6 1
     7    5   10 1
     8    5   24 1
     9    6    7 1
    10    6    8 1
    11    8    9 1
    12    9   11 1
    13   10   11 1
    14   10   13 1
    15   10   25 1
    16   11   12 2
    17   13   14 1
    18   14   15 1
    19   15   16 ar
    20   15   22 ar
    21   16   17 1
    22   16   18 ar
    23   18   19 1
    24   18   20 ar
    25   20   21 ar
    26   21   22 ar
    27   22   23 1
    28    3   26 1
    29    3   27 1
    30    4   28 1
    31    4   29 1
    32    7   30 1
    33    7   31 1
    34    7   32 1
    35    8   33 1
    36    8   34 1
    37    9   35 1
    38    9   36 1
    39   13   37 1
    40   13   38 1
    41   14   39 1
    42   14   40 1
    43   17   41 1
    44   19   42 1
    45   20   43 1
    46   21   44 1
    47   23   45 1
    48   23   46 1
    49   23   47 1
@<TRIPOS>MOLECULE
SIH
   65    68     0     0     0
SMALL
NO_CHARGES

@<TRIPOS>ATOM
      1 C1         -1.6133    1.1778    0.0000 CT        1 <0>         0.0000
      2 C2         -2.3278    1.5903    0.0000 CT        1 <0>         0.0000
      3 C3         -3.0423    1.1778    0.0000 C         1 <0>         0.0000
      4 O1         -3.7568    1.5903    0.0000 O         1 <0>         0.0000
      5 C4         -3.0423    0.3528    0.0000 CM        1 <0>         0.0000
      6 C5         -2.3278   -0.0597    0.0000 CM        1 <0>         0.0000
      7 C6         -2.3278   -0.8847    0.0000 CT        1 <0>         0.0000
      8 C7         -1.6133   -1.2972    0.0000 CT        1 <0>         0.0000
      9 C8         -0.8989   -0.8847    0.0000 CT        1 <0>         0.0000
     10 C9         -0.8989   -0.0597    0.0000 CT        1 <0>         0.0000
     11 C10        -1.6133    0.3528    0.0000 CT        1 <0>         0.0000
     12 C11        -0.1844    0.3528    0.0000 CT        1 <0>         0.0000
     13 O2         -0.1844    1.1778    0.0000 OS        1 <0>         0.0000
     14 C12         0.5301   -0.0597    0.0000 CT        1 <0>         0.0000
     15 C13         0.5301   -0.8847    0.0000 CT        1 <0>         0.0000
     16 C14        -0.1844   -1.2972    0.0000 CT        1 <0>         0.0000
     17 C15        -0.0129   -2.1042    0.0000 CT        1 <0>         0.0000
     18 C16         0.8076   -2.1905    0.0000 CT        1 <0>         0.0000
     19 C17         1.1432   -1.4368    0.0000 CT        1 <0>         0.0000
     20 C18         1.2837   -0.5492    0.0000 CT        1 <0>         0.0000
     21 C19        -0.8989    0.7653    0.0000 CT        1 <0>         0.0000
     22 C20         1.9501   -1.2653    0.0000 C         1 <0>         0.0000
     23 O3          2.5022   -1.8783    0.0000 O         1 <0>         0.0000
     24 C21         2.2051   -0.4806    0.0000 CT        1 <0>         0.0000
     25 C22         0.5301    1.5903    0.0000 C         1 <0>         0.0000
     26 O4          0.5301    2.4153    0.0000 O         1 <0>         0.0000
     27 C23         1.2445    1.1778    0.0000 CT        1 <0>         0.0000
     28 C24         1.9590    1.5903    0.0000 CT        1 <0>         0.0000
     29 C25         2.6735    1.1778    0.0000 C         1 <0>         0.0000
     30 O5          2.6735    0.3528    0.0000 O         1 <0>         0.0000
     31 O6          3.3880    1.5903    0.0000 OH        1 <0>         0.0000
     32 H1         -0.8989   -1.4687    0.0000 HC        1 <0>         0.0000
     33 H2         -1.0986    0.4890    0.0000 HC        1 <0>         0.0000
     34 H3         -0.5597    0.8001    0.0000 H1        1 <0>         0.0000
     35 H4         -0.6568   -1.6405    0.0000 HC        1 <0>         0.0000
     36 H5          1.2943   -0.8727    0.0000 HC        1 <0>         0.0000
     37 H6         -1.6133    1.1778    0.0000 HC        1 <0>         0.0000
     38 H7         -1.6133    1.1778    0.0000 HC        1 <0>         0.0000
     39 H8         -2.3278    1.5903    0.0000 HC        1 <0>         0.0000
     40 H9         -2.3278    1.5903    0.0000 HC        1 <0>         0.0000
     41 H10        -3.0423    0.3528    0.0000 HA        1 <0>         0.0000
     42 H11        -2.3278   -0.8847    0.0000 HC        1 <0>         0.0000
     43 H12        -2.3278   -0.8847    0.0000 HC        1 <0>         0.0000
     44 H13        -1.6133   -1.2972    0.0000 HC        1 <0>         0.0000
     45 H14        -1.6133   -1.2972    0.0000 HC        1 <0>         0.0000
     46 H15         0.5301   -0.0597    0.0000 HC        1 <0>         0.0000
     47 H16         0.5301   -0.0597    0.0000 HC        1 <0>         0.0000
     48 H17        -0.0129   -2.1042    0.0000 HC        1 <0>         0.0000
     49 H18        -0.0129   -2.1042    0.0000 HC        1 <0>         0.0000
     50 H19         0.8076   -2.1905    0.0000 HC        1 <0>         0.0000
     51 H20         0.8076   -2.1905    0.0000 HC        1 <0>         0.0000
     52 H21         1.2837   -0.5492    0.0000 HC        1 <0>         0.0000
     53 H22         1.2837   -0.5492    0.0000 HC        1 <0>         0.0000
     54 H23         1.2837   -0.5492    0.0000 HC        1 <0>         0.0000
     55 H24        -0.8989    0.7653    0.0000 HC        1 <0>         0.0000
     56 H25        -0.8989    0.7653    0.0000 HC        1 <0>         0.0000
     57 H26        -0.8989    0.7653    0.0000 HC        1 <0>         0.0000
     58 H27         2.2051   -0.4806    0.0000 HC        1 <0>         0.0000
     59 H28         2.2051   -0.4806    0.0000 HC        1 <0>         0.0000
     60 H29         2.2051   -0.4806    0.0000 HC        1 <0>         0.0000
     61 H30         1.2445    1.1778    0.0000 HC        1 <0>         0.0000
     62 H31         1.2445    1.1778    0.0000 HC        1 <0>         0.0000
     63 H32         1.9590    1.5903    0.0000 HC        1 <0>         0.0000
     64 H33         1.9590    1.5903    0.0000 HC        1 <0>         0.0000
     65 H34         3.3880    1.5903    0.0000 HO        1 <0>         0.0000
@<TRIPOS>BOND
     1    1    2 1
     2    1   11 1
     3    2    3 1
     4    3    4 2
     5    3    5 1
     6    5    6 2
     7    6    7 1
     8    6   11 1
     9    7    8 1
    10    8    9 1
    11    9   10 1
    12    9   16 1
    13    9   32 1
    14   10   11 1
    15   10   12 1
    16   10   33 1
    17   11   21 1
    18   12   13 1
    19   12   14 1
    20   12   34 1
    21   13   25 1
    22   14   15 1
    23   15   16 1
    24   15   19 1
    25   15   20 1
    26   16   17 1
    27   16   35 1
    28   17   18 1
    29   18   19 1
    30   19   22 1
    31   19   36 1
    32   22   23 2
    33   22   24 1
    34   25   26 2
    35   25   27 1
    36   27   28 1
    37   28   29 1
    38   29   30 2
    39   29   31 1
    40    1   37 1
    41    1   38 1
    42    2   39 1
    43    2   40 1
    44    5   41 1
    45    7   42 1
    46    7   43 1
    47    8   44 1
    48    8   45 1
    49   14   46 1
    50   14   47 1
    51   17   48 1
    52   17   49 1
    53   18   50 1
    54   18   51 1
    55   20   52 1
    56   20   53 1
    57   20   54 1
    58   21   55 1
    59   21   56 1
    60   21   57 1
    61   24   58 1
    62   24   59 1
    63   24   60 1
    64   27   61 1
    65   27   62 1
    66   28   63 1
    67   28   64 1
    68   31   65 1
@<TRIPOS>MOLECULE
SXX
   28    28     0     0     0
SMALL
NO_CHARGES

@<TRIPOS>ATOM
      1 C1          0.4651   -1.2823    0.0000 CA        1 <0>         0.0000
      2 C2         -0.3599   -1.2823    0.0000 CA        1 <0>         0.0000
      3 C3         -0.7724   -0.5678    0.0000 CA        1 <0>         0.0000
      4 C4         -0.3599    0.1467    0.0000 CA        1 <0>         0.0000
      5 C5          0.4651    0.1467    0.0000 CA        1 <0>         0.0000
      6 C6          0.8776   -0.5678    0.0000 CA        1 <0>         0.0000
      7 O1          0.8776   -1.9967    0.0000 OH        1 <0>         0.0000
      8 O2          1.7026   -0.5678    0.0000 OS        1 <0>         0.0000
      9 O3         -0.7724   -1.9967    0.0000 OS        1 <0>         0.0000
     10 C7         -0.7724    0.8611    0.0000 CM        1 <0>         0.0000
     11 C8         -0.3599    1.5756    0.0000 CM        1 <0>         0.0000
     12 C9         -0.7724    2.2901    0.0000 C         1 <0>         0.0000
     13 O4         -1.5974    2.2901    0.0000 OH        1 <0>         0.0000
     14 O5         -0.3599    3.0045    0.0000 O         1 <0>         0.0000
     15 C10        -1.5974   -1.9967    0.0000 CT        1 <0>         0.0000
     16 C11         2.1151    0.1467    0.0000 CT        1 <0>         0.0000
     17 H1         -0.7724   -0.5678    0.0000 HA        1 <0>         0.0000
     18 H2          0.4651    0.1467    0.0000 HA        1 <0>         0.0000
     19 H3          0.8776   -1.9967    0.0000 HO        1 <0>         0.0000
     20 H4         -0.7724    0.8611    0.0000 HA        1 <0>         0.0000
     21 H5         -0.3599    1.5756    0.0000 HA        1 <0>         0.0000
     22 H6         -1.5974    2.2901    0.0000 HO        1 <0>         0.0000
     23 H7         -1.5974   -1.9967    0.0000 H1        1 <0>         0.0000
     24 H8         -1.5974   -1.9967    0.0000 H1        1 <0>         0.0000
     25 H9         -1.5974   -1.9967    0.0000 H1        1 <0>         0.0000
     26 H10         2.1151    0.1467    0.0000 H1        1 <0>         0.0000
     27 H11         2.1151    0.1467    0.0000 H1        1 <0>         0.0000
     28 H12         2.1151    0.1467    0.0000 H1        1 <0>         0.0000
@<TRIPOS>BOND
     1    1    2 ar
     2    1    6 ar
     3    1    7 1
     4    2    3 ar
     5    2    9 1
     6    3    4 ar
     7    4    5 ar
     8    4   10 1
     9    5    6 ar
    10    6    8 1
    11    8   16 1
    12    9   15 1
    13   10   11 2
    14   11   12 1
    15   12   13 1
    16   12   14 2
    17    3   17 1
    18    5   18 1
    19    7   19 1
    20   10   20 1
    21   11   21 1
    22   13   22 1
    23   15   23 1
    24   15   24 1
    25   15   25 1
    26   16   26 1
    27   16   27 1
    28   16   28 1
@<TRIPOS>MOLECULE
SYR
   27    27     0     0     0
SMALL
NO_CHARGES

@<TRIPOS>ATOM
      1 O1          1.9783    0.3279    0.0000 O         1 <0>         0.0000
      2 C1          1.2639    0.7404    0.0000 C         1 <0>         0.0000
      3 O2          1.2639    1.5654    0.0000 OS        1 <0>         0.0000
      4 C2          1.9783    1.9779    0.0000 CT        1 <0>         0.0000
      5 C3          0.5494    0.3279    0.0000 CA        1 <0>         0.0000
      6 C4          0.5494   -0.4971    0.0000 CA        1 <0>         0.0000
      7 C5         -0.1651   -0.9096    0.0000 CA        1 <0>         0.0000
      8 O3         -0.1651   -1.7346    0.0000 OS        1 <0>         0.0000
      9 C6          0.5494   -2.1471    0.0000 CT        1 <0>         0.0000
     10 C7         -0.1651    0.7404    0.0000 CA        1 <0>         0.0000
     11 C8         -0.8796    0.3279    0.0000 CA        1 <0>         0.0000
     12 O4         -1.5940    0.7404    0.0000 OS        1 <0>         0.0000
     13 C9         -2.3085    0.3279    0.0000 CT        1 <0>         0.0000
     14 C10        -0.8796   -0.4971    0.0000 CA        1 <0>         0.0000
     15 O5         -1.5940   -0.9096    0.0000 OH        1 <0>         0.0000
     16 H1          1.9783    1.9779    0.0000 H1        1 <0>         0.0000
     17 H2          1.9783    1.9779    0.0000 H1        1 <0>         0.0000
     18 H3          1.9783    1.9779    0.0000 H1        1 <0>         0.0000
     19 H4          0.5494   -0.4971    0.0000 HA        1 <0>         0.0000
     20 H5          0.5494   -2.1471    0.0000 H1        1 <0>         0.0000
     21 H6          0.5494   -2.1471    0.0000 H1        1 <0>         0.0000
     22 H7          0.5494   -2.1471    0.0000 H1        1 <0>         0.0000
     23 H8         -0.1651    0.7404    0.0000 HA        1 <0>         0.0000
     24 H9         -2.3085    0.3279    0.0000 H1        1 <0>         0.0000
     25 H10        -2.3085    0.3279    0.0000 H1        1 <0>         0.0000
     26 H11        -2.3085    0.3279    0.0000 H1        1 <0>         0.0000
     27 H12        -1.5940   -0.9096    0.0000 HO        1 <0>         0.0000
@<TRIPOS>BOND
     1    1    2 2
     2    2    3 1
     3    2    5 1
     4    3    4 1
     5    5    6 ar
     6    5   10 ar
     7    6    7 ar
     8    7    8 1
     9    7   14 ar
    10    8    9 1
    11   10   11 ar
    12   11   12 1
    13   11   14 ar
    14   12   13 1
    15   14   15 1
    16    4   16 1
    17    4   17 1
    18    4   18 1
    19    6   19 1
    20    9   20 1
    21    9   21 1
    22    9   22 1
    23   10   23 1
    24   13   24 1
    25   13   25 1
    26   13   26 1
    27   15   27 1
@<TRIPOS>MOLECULE
T3O
   41    43     0     0     0
SMALL
NO_CHARGES

@<TRIPOS>ATOM
      1 C1          1.2047    0.8940    0.0000 CT        1 <0>         0.0000
      2 C2          0.6549    0.4580    0.0000 CT        1 <0>         0.0000
      3 C3         -0.0991    0.2923    0.0000 CM        1 <0>         0.0000
      4 C4         -0.2810    1.2700    0.0000 CT        1 <0>         0.0000
      5 C5         -0.3910   -0.3446    0.0000 CM        1 <0>         0.0000
      6 C6          0.1135    0.0797    0.0000 CT        1 <0>         0.0000
      7 C7          1.0735    0.0904    0.0000 CT        1 <0>         0.0000
      8 C8          1.1205   -0.8965    0.0000 CT        1 <0>         0.0000
      9 C9          2.0184   -0.8228    0.0000 CT        1 <0>         0.0000
     10 C10         1.2796   -1.7849    0.0000 CT        1 <0>         0.0000
     11 O1          0.3042   -1.0760    0.0000 OS        1 <0>         0.0000
     12 C11         0.7163   -0.4951    0.0000 CT        1 <0>         0.0000
     13 C12        -0.0774   -0.2700    0.0000 CA        1 <0>         0.0000
     14 C13        -0.6692   -0.8449    0.0000 CA        1 <0>         0.0000
     15 C14        -1.4629   -0.6198    0.0000 CA        1 <0>         0.0000
     16 C15        -1.6648    0.1801    0.0000 CA        1 <0>         0.0000
     17 O2         -2.4585    0.4052    0.0000 OH        1 <0>         0.0000
     18 C16        -1.0730    0.7550    0.0000 CA        1 <0>         0.0000
     19 C17        -0.2793    0.5299    0.0000 CA        1 <0>         0.0000
     20 H1          0.8252    1.0165    0.0000 HC        1 <0>         0.0000
     21 H2          1.4741    0.5152    0.0000 HC        1 <0>         0.0000
     22 H3          0.2161   -0.1937    0.0000 H1        1 <0>         0.0000
     23 H4          1.2047    0.8940    0.0000 HC        1 <0>         0.0000
     24 H5          1.2047    0.8940    0.0000 HC        1 <0>         0.0000
     25 H6         -0.2810    1.2700    0.0000 HC        1 <0>         0.0000
     26 H7         -0.2810    1.2700    0.0000 HC        1 <0>         0.0000
     27 H8         -0.2810    1.2700    0.0000 HC        1 <0>         0.0000
     28 H9         -0.3910   -0.3446    0.0000 HA        1 <0>         0.0000
     29 H10         0.1135    0.0797    0.0000 HC        1 <0>         0.0000
     30 H11         0.1135    0.0797    0.0000 HC        1 <0>         0.0000
     31 H12         2.0184   -0.8228    0.0000 HC        1 <0>         0.0000
     32 H13         2.0184   -0.8228    0.0000 HC        1 <0>         0.0000
     33 H14         2.0184   -0.8228    0.0000 HC        1 <0>         0.0000
     34 H15         1.2796   -1.7849    0.0000 HC        1 <0>         0.0000
     35 H16         1.2796   -1.7849    0.0000 HC        1 <0>         0.0000
     36 H17         1.2796   -1.7849    0.0000 HC        1 <0>         0.0000
     37 H18        -0.6692   -0.8449    0.0000 HA        1 <0>         0.0000
     38 H19        -1.4629   -0.6198    0.0000 HA        1 <0>         0.0000
     39 H20        -2.4585    0.4052    0.0000 HO        1 <0>         0.0000
     40 H21        -1.0730    0.7550    0.0000 HA        1 <0>         0.0000
     41 H22        -0.2793    0.5299    0.0000 HA        1 <0>         0.0000
@<TRIPOS>BOND
     1    1    2 1
     2    1    7 1
     3    2    3 1
     4    2   12 1
     5    2   20 1
     6    3    4 1
     7    3    5 2
     8    5    6 1
     9    6    7 1
    10    7    8 1
    11    7   21 1
    12    8    9 1
    13    8   10 1
    14    8   11 1
    15   11   12 1
    16   12   13 1
    17   12   22 1
    18   13   14 ar
    19   13   19 ar
    20   14   15 ar
    21   15   16 ar
    22   16   17 1
    23   16   18 ar
    24   18   19 ar
    25    1   23 1
    26    1   24 1
    27    4   25 1
    28    4   26 1
    29    4   27 1
    30    5   28 1
    31    6   29 1
    32    6   30 1
    33    9   31 1
    34    9   32 1
    35    9   33 1
    36   10   34 1
    37   10   35 1
    38   10   36 1
    39   14   37 1
    40   15   38 1
    41   17   39 1
    42   18   40 1
    43   19   41 1
@<TRIPOS>MOLECULE
TH2
   60    63     0     0     0
SMALL
NO_CHARGES

@<TRIPOS>ATOM
      1 C1         -0.1432    2.1535    0.0000 CT        1 <0>         0.0000
      2 C2         -0.3982    2.9382    0.0000 CT        1 <0>         0.0000
      3 C3         -1.2051    3.1097    0.0000 C         1 <0>         0.0000
      4 O1         -1.4601    3.8943    0.0000 O         1 <0>         0.0000
      5 C4         -1.7572    2.4966    0.0000 CM        1 <0>         0.0000
      6 C5         -1.5022    1.7120    0.0000 CM        1 <0>         0.0000
      7 C6         -2.0543    1.0989    0.0000 CT        1 <0>         0.0000
      8 C7         -1.7993    0.3143    0.0000 CT        1 <0>         0.0000
      9 C8         -0.9923    0.1427    0.0000 CT        1 <0>         0.0000
     10 C9         -0.4403    0.7558    0.0000 CT        1 <0>         0.0000
     11 C10        -0.6952    1.5404    0.0000 CT        1 <0>         0.0000
     12 C11         0.3667    0.5843    0.0000 CT        1 <0>         0.0000
     13 C12         0.6216   -0.2003    0.0000 CT        1 <0>         0.0000
     14 C13         0.0696   -0.8134    0.0000 CT        1 <0>         0.0000
     15 C14        -0.7374   -0.6419    0.0000 CT        1 <0>         0.0000
     16 C15        -1.1499   -1.3564    0.0000 CT        1 <0>         0.0000
     17 C16        -0.5979   -1.9695    0.0000 CT        1 <0>         0.0000
     18 C17         0.1558   -1.6339    0.0000 CT        1 <0>         0.0000
     19 O2          0.8703   -2.0464    0.0000 OS        1 <0>         0.0000
     20 C18         0.8542   -1.0684    0.0000 CT        1 <0>         0.0000
     21 C19         1.5847   -1.6339    0.0000 C         1 <0>         0.0000
     22 O3          1.5847   -0.8089    0.0000 O         1 <0>         0.0000
     23 C20         3.0137   -1.6339    0.0000 CT        1 <0>         0.0000
     24 C21         2.2992   -2.0464    0.0000 CT        1 <0>         0.0000
     25 C22         3.7282   -2.0464    0.0000 C         1 <0>         0.0000
     26 O4          4.4426   -1.6339    0.0000 O         1 <0>         0.0000
     27 O5          3.7282   -2.8714    0.0000 OH        1 <0>         0.0000
     28 C23         0.1117    1.3689    0.0000 CT        1 <0>         0.0000
     29 H1         -1.3831   -0.2912    0.0000 HC        1 <0>         0.0000
     30 H2          0.0753    1.0300    0.0000 HC        1 <0>         0.0000
     31 H3         -1.3181   -0.5809    0.0000 HC        1 <0>         0.0000
     32 H4          0.6455   -1.3159    0.0000 H1        1 <0>         0.0000
     33 H5         -0.1432    2.1535    0.0000 HC        1 <0>         0.0000
     34 H6         -0.1432    2.1535    0.0000 HC        1 <0>         0.0000
     35 H7         -0.3982    2.9382    0.0000 HC        1 <0>         0.0000
     36 H8         -0.3982    2.9382    0.0000 HC        1 <0>         0.0000
     37 H9         -1.7572    2.4966    0.0000 HA        1 <0>         0.0000
     38 H10        -2.0543    1.0989    0.0000 HC        1 <0>         0.0000
     39 H11        -2.0543    1.0989    0.0000 HC        1 <0>         0.0000
     40 H12        -1.7993    0.3143    0.0000 HC        1 <0>         0.0000
     41 H13        -1.7993    0.3143    0.0000 HC        1 <0>         0.0000
     42 H14         0.3667    0.5843    0.0000 HC        1 <0>         0.0000
     43 H15         0.3667    0.5843    0.0000 HC        1 <0>         0.0000
     44 H16         0.6216   -0.2003    0.0000 HC        1 <0>         0.0000
     45 H17         0.6216   -0.2003    0.0000 HC        1 <0>         0.0000
     46 H18        -1.1499   -1.3564    0.0000 HC        1 <0>         0.0000
     47 H19        -1.1499   -1.3564    0.0000 HC        1 <0>         0.0000
     48 H20        -0.5979   -1.9695    0.0000 HC        1 <0>         0.0000
     49 H21        -0.5979   -1.9695    0.0000 HC        1 <0>         0.0000
     50 H22         0.8542   -1.0684    0.0000 HC        1 <0>         0.0000
     51 H23         0.8542   -1.0684    0.0000 HC        1 <0>         0.0000
     52 H24         0.8542   -1.0684    0.0000 HC        1 <0>         0.0000
     53 H25         3.0137   -1.6339    0.0000 HC        1 <0>         0.0000
     54 H26         3.0137   -1.6339    0.0000 HC        1 <0>         0.0000
     55 H27         2.2992   -2.0464    0.0000 HC        1 <0>         0.0000
     56 H28         2.2992   -2.0464    0.0000 HC        1 <0>         0.0000
     57 H29         3.7282   -2.8714    0.0000 HO        1 <0>         0.0000
     58 H30         0.1117    1.3689    0.0000 HC        1 <0>         0.0000
     59 H31         0.1117    1.3689    0.0000 HC        1 <0>         0.0000
     60 H32         0.1117    1.3689    0.0000 HC        1 <0>         0.0000
@<TRIPOS>BOND
     1    1    2 1
     2    1   11 1
     3    2    3 1
     4    3    4 2
     5    3    5 1
     6    5    6 2
     7    6    7 1
     8    6   11 1
     9    7    8 1
    10    8    9 1
    11    9   10 1
    12    9   15 1
    13    9   29 1
    14   10   11 1
    15   10   12 1
    16   10   30 1
    17   11   28 1
    18   12   13 1
    19   13   14 1
    20   14   15 1
    21   14   18 1
    22   14   20 1
    23   15   16 1
    24   15   31 1
    25   16   17 1
    26   17   18 1
    27   18   19 1
    28   18   32 1
    29   19   21 1
    30   21   22 2
    31   21   24 1
    32   23   24 1
    33   23   25 1
    34   25   26 2
    35   25   27 1
    36    1   33 1
    37    1   34 1
    38    2   35 1
    39    2   36 1
    40    5   37 1
    41    7   38 1
    42    7   39 1
    43    8   40 1
    44    8   41 1
    45   12   42 1
    46   12   43 1
    47   13   44 1
    48   13   45 1
    49   16   46 1
    50   16   47 1
    51   17   48 1
    52   17   49 1
    53   20   50 1
    54   20   51 1
    55   20   52 1
    56   23   53 1
    57   23   54 1
    58   24   55 1
    59   24   56 1
    60   27   57 1
    61   28   58 1
    62   28   59 1
    63   28   60 1
@<TRIPOS>MOLECULE
TMM
   21    21     0     0     0
SMALL
NO_CHARGES

@<TRIPOS>ATOM
      1 C1          0.7555    0.4713    0.0000 CA        1 <0>         0.0000
      2 C2          0.7555   -0.3537    0.0000 CA        1 <0>         0.0000
      3 C3          0.0410   -0.7662    0.0000 CA        1 <0>         0.0000
      4 C4         -0.6735   -0.3537    0.0000 CA        1 <0>         0.0000
      5 C5         -0.6735    0.4713    0.0000 CA        1 <0>         0.0000
      6 C6          0.0410    0.8838    0.0000 CA        1 <0>         0.0000
      7 C7          1.4699    0.8838    0.0000 C         1 <0>         0.0000
      8 C8          0.0410   -1.5912    0.0000 C         1 <0>         0.0000
      9 C9         -1.3879    0.8838    0.0000 C         1 <0>         0.0000
     10 O1          1.4699    1.7088    0.0000 O         1 <0>         0.0000
     11 O2          2.1844    0.4713    0.0000 OH        1 <0>         0.0000
     12 O3          0.7555   -2.0037    0.0000 O         1 <0>         0.0000
     13 O4         -0.6735   -2.0037    0.0000 OH        1 <0>         0.0000
     14 O5         -1.3879    1.7088    0.0000 O         1 <0>         0.0000
     15 O6         -2.1024    0.4713    0.0000 OH        1 <0>         0.0000
     16 H1          0.7555   -0.3537    0.0000 HA        1 <0>         0.0000
     17 H2         -0.6735   -0.3537    0.0000 HA        1 <0>         0.0000
     18 H3          0.0410    0.8838    0.0000 HA        1 <0>         0.0000
     19 H4          2.1844    0.4713    0.0000 HO        1 <0>         0.0000
     20 H5         -0.6735   -2.0037    0.0000 HO        1 <0>         0.0000
     21 H6         -2.1024    0.4713    0.0000 HO        1 <0>         0.0000
@<TRIPOS>BOND
     1    1    2 ar
     2    1    6 ar
     3    1    7 1
     4    2    3 ar
     5    3    4 ar
     6    3    8 1
     7    4    5 ar
     8    5    6 ar
     9    5    9 1
    10    7   10 2
    11    7   11 1
    12    8   12 2
    13    8   13 1
    14    9   14 2
    15    9   15 1
    16    2   16 1
    17    4   17 1
    18    6   18 1
    19   11   19 1
    20   13   20 1
    21   15   21 1
@<TRIPOS>MOLECULE
TOH
   22    22     0     0     0
SMALL
NO_CHARGES

@<TRIPOS>ATOM
      1 O1          3.8396   -0.6435    0.0000 O         1 <0>         0.0000
      2 C1          3.1251   -0.2310    0.0000 C         1 <0>         0.0000
      3 C2          3.1251    0.5940    0.0000 C         1 <0>         0.0000
      4 O2          3.8396    1.0065    0.0000 OH        1 <0>         0.0000
      5 O3          2.4106    1.0065    0.0000 O         1 <0>         0.0000
      6 C3          2.4106   -0.6435    0.0000 CM        1 <0>         0.0000
      7 C4          2.4106   -1.4685    0.0000 CM        1 <0>         0.0000
      8 C5          1.6961   -1.8810    0.0000 CA        1 <0>         0.0000
      9 C6          1.6961   -2.7060    0.0000 CA        1 <0>         0.0000
     10 C7          0.9817   -3.1185    0.0000 CA        1 <0>         0.0000
     11 C8          0.2672   -2.7060    0.0000 CA        1 <0>         0.0000
     12 C9          0.2672   -1.8810    0.0000 CA        1 <0>         0.0000
     13 C10         0.9817   -1.4685    0.0000 CA        1 <0>         0.0000
     14 O4          0.9817   -0.6435    0.0000 OH        1 <0>         0.0000
     15 H1          3.8396    1.0065    0.0000 HO        1 <0>         0.0000
     16 H2          2.4106   -0.6435    0.0000 HA        1 <0>         0.0000
     17 H3          2.4106   -1.4685    0.0000 HA        1 <0>         0.0000
     18 H4          1.6961   -2.7060    0.0000 HA        1 <0>         0.0000
     19 H5          0.9817   -3.1185    0.0000 HA        1 <0>         0.0000
     20 H6          0.2672   -2.7060    0.0000 HA        1 <0>         0.0000
     21 H7          0.2672   -1.8810    0.0000 HA        1 <0>         0.0000
     22 H8          0.9817   -0.6435    0.0000 HO        1 <0>         0.0000
@<TRIPOS>BOND
     1    1    2 2
     2    2    3 1
     3    2    6 1
     4    3    5 2
     5    3    4 1
     6    6    7 2
     7    7    8 1
     8    8    9 ar
     9    8   13 ar
    10    9   10 ar
    11   10   11 ar
    12   11   12 ar
    13   12   13 ar
    14   13   14 1
    15    4   15 1
    16    6   16 1
    17    7   17 1
    18    9   18 1
    19   10   19 1
    20   11   20 1
    21   12   21 1
    22   14   22 1
@<TRIPOS>MOLECULE
TOM
   25    25     0     0     0
SMALL
NO_CHARGES

@<TRIPOS>ATOM
      1 O1          3.2201    0.4076    0.0000 O         1 <0>         0.0000
      2 C1          3.2201   -0.4174    0.0000 C         1 <0>         0.0000
      3 C2          3.9346   -0.8299    0.0000 C         1 <0>         0.0000
      4 O2          4.6491   -0.4174    0.0000 OH        1 <0>         0.0000
      5 O3          3.9346   -1.6549    0.0000 O         1 <0>         0.0000
      6 C3          2.5057   -0.8299    0.0000 CM        1 <0>         0.0000
      7 C4          1.7912   -0.4174    0.0000 CM        1 <0>         0.0000
      8 C5          1.0767   -0.8299    0.0000 CA        1 <0>         0.0000
      9 C6          0.3622   -0.4174    0.0000 CA        1 <0>         0.0000
     10 C7         -0.3522   -0.8299    0.0000 CA        1 <0>         0.0000
     11 C8         -0.3522   -1.6549    0.0000 CA        1 <0>         0.0000
     12 C9          0.3622   -2.0674    0.0000 CA        1 <0>         0.0000
     13 C10         1.0767   -1.6549    0.0000 CA        1 <0>         0.0000
     14 O4          1.7912   -2.0674    0.0000 OS        1 <0>         0.0000
     15 C11         1.7912   -2.8924    0.0000 CT        1 <0>         0.0000
     16 H1          4.6491   -0.4174    0.0000 HO        1 <0>         0.0000
     17 H2          2.5057   -0.8299    0.0000 HA        1 <0>         0.0000
     18 H3          1.7912   -0.4174    0.0000 HA        1 <0>         0.0000
     19 H4          0.3622   -0.4174    0.0000 HA        1 <0>         0.0000
     20 H5         -0.3522   -0.8299    0.0000 HA        1 <0>         0.0000
     21 H6         -0.3522   -1.6549    0.0000 HA        1 <0>         0.0000
     22 H7          0.3622   -2.0674    0.0000 HA        1 <0>         0.0000
     23 H8          1.7912   -2.8924    0.0000 H1        1 <0>         0.0000
     24 H9          1.7912   -2.8924    0.0000 H1        1 <0>         0.0000
     25 H10         1.7912   -2.8924    0.0000 H1        1 <0>         0.0000
@<TRIPOS>BOND
     1    1    2 2
     2    2    3 1
     3    2    6 1
     4    3    5 2
     5    3    4 1
     6    6    7 2
     7    7    8 1
     8    8   13 ar
     9    8    9 ar
    10    9   10 ar
    11   10   11 ar
    12   11   12 ar
    13   12   13 ar
    14   13   14 1
    15   14   15 1
    16    4   16 1
    17    6   17 1
    18    7   18 1
    19    9   19 1
    20   10   20 1
    21   11   21 1
    22   12   22 1
    23   15   23 1
    24   15   24 1
    25   15   25 1
@<TRIPOS>MOLECULE
TRZ
   51    52     0     0     0
SMALL
NO_CHARGES

@<TRIPOS>ATOM
      1 C1         -0.9445    0.5944    0.0000 CA        1 <0>         0.0000
      2 C2         -0.2300    1.0069    0.0000 CA        1 <0>         0.0000
      3 C3          0.4845    0.5944    0.0000 CA        1 <0>         0.0000
      4 C4          0.4845   -0.2306    0.0000 CA        1 <0>         0.0000
      5 C5         -0.2300   -0.6431    0.0000 CA        1 <0>         0.0000
      6 C6         -0.9445   -0.2306    0.0000 CA        1 <0>         0.0000
      7 C7          1.2691    0.8493    0.0000 CT        1 <0>         0.0000
      8 C8          1.7540    0.1819    0.0000 CT        1 <0>         0.0000
      9 C9          1.2691   -0.4856    0.0000 CT        1 <0>         0.0000
     10 C10         1.5240   -1.2702    0.0000 CT        1 <0>         0.0000
     11 C11         2.3310   -1.4417    0.0000 CT        1 <0>         0.0000
     12 C12         0.9720   -1.8833    0.0000 CT        1 <0>         0.0000
     13 C13         2.5790    0.1819    0.0000 CT        1 <0>         0.0000
     14 C14         1.1060    1.6580    0.0000 CT        1 <0>         0.0000
     15 C15         1.8764    1.4077    0.0000 CT        1 <0>         0.0000
     16 C16        -1.6590    1.0069    0.0000 CT        1 <0>         0.0000
     17 C17        -2.3734   -0.2306    0.0000 CT        1 <0>         0.0000
     18 C18        -3.0879   -0.6431    0.0000 CT        1 <0>         0.0000
     19 C19        -3.8024   -0.2306    0.0000 C         1 <0>         0.0000
     20 O1         -4.5168   -0.6431    0.0000 O         1 <0>         0.0000
     21 O2         -3.8024    0.5944    0.0000 OH        1 <0>         0.0000
     22 C20        -1.6590   -0.6431    0.0000 C         1 <0>         0.0000
     23 O3         -1.6590   -1.4681    0.0000 O         1 <0>         0.0000
     24 H1          2.0191    0.7022    0.0000 HC        1 <0>         0.0000
     25 H2          0.8562   -0.8985    0.0000 HC        1 <0>         0.0000
     26 H3         -0.2300    1.0069    0.0000 HA        1 <0>         0.0000
     27 H4         -0.2300   -0.6431    0.0000 HA        1 <0>         0.0000
     28 H5          1.5240   -1.2702    0.0000 HC        1 <0>         0.0000
     29 H6          2.3310   -1.4417    0.0000 HC        1 <0>         0.0000
     30 H7          2.3310   -1.4417    0.0000 HC        1 <0>         0.0000
     31 H8          2.3310   -1.4417    0.0000 HC        1 <0>         0.0000
     32 H9          0.9720   -1.8833    0.0000 HC        1 <0>         0.0000
     33 H10         0.9720   -1.8833    0.0000 HC        1 <0>         0.0000
     34 H11         0.9720   -1.8833    0.0000 HC        1 <0>         0.0000
     35 H12         2.5790    0.1819    0.0000 HC        1 <0>         0.0000
     36 H13         2.5790    0.1819    0.0000 HC        1 <0>         0.0000
     37 H14         2.5790    0.1819    0.0000 HC        1 <0>         0.0000
     38 H15         1.1060    1.6580    0.0000 HC        1 <0>         0.0000
     39 H16         1.1060    1.6580    0.0000 HC        1 <0>         0.0000
     40 H17         1.1060    1.6580    0.0000 HC        1 <0>         0.0000
     41 H18         1.8764    1.4077    0.0000 HC        1 <0>         0.0000
     42 H19         1.8764    1.4077    0.0000 HC        1 <0>         0.0000
     43 H20         1.8764    1.4077    0.0000 HC        1 <0>         0.0000
     44 H21        -1.6590    1.0069    0.0000 HC        1 <0>         0.0000
     45 H22        -1.6590    1.0069    0.0000 HC        1 <0>         0.0000
     46 H23        -1.6590    1.0069    0.0000 HC        1 <0>         0.0000
     47 H24        -2.3734   -0.2306    0.0000 HC        1 <0>         0.0000
     48 H25        -2.3734   -0.2306    0.0000 HC        1 <0>         0.0000
     49 H26        -3.0879   -0.6431    0.0000 HC        1 <0>         0.0000
     50 H27        -3.0879   -0.6431    0.0000 HC        1 <0>         0.0000
     51 H28        -3.8024    0.5944    0.0000 HO        1 <0>         0.0000
@<TRIPOS>BOND
     1    1    2 ar
     2    1    6 ar
     3    1   16 1
     4    2    3 ar
     5    3    4 ar
     6    3    7 1
     7    4    5 ar
     8    4    9 1
     9    5    6 ar
    10    6   22 1
    11    7    8 1
    12    7   14 1
    13    7   15 1
    14    8    9 1
    15    8   13 1
    16    8   24 1
    17    9   10 1
    18    9   25 1
    19   10   11 1
    20   10   12 1
    21   17   18 1
    22   17   22 1
    23   18   19 1
    24   19   20 2
    25   19   21 1
    26   22   23 2
    27    2   26 1
    28    5   27 1
    29   10   28 1
    30   11   29 1
    31   11   30 1
    32   11   31 1
    33   12   32 1
    34   12   33 1
    35   12   34 1
    36   13   35 1
    37   13   36 1
    38   13   37 1
    39   14   38 1
    40   14   39 1
    41   14   40 1
    42   15   41 1
    43   15   42 1
    44   15   43 1
    45   16   44 1
    46   16   45 1
    47   16   46 1
    48   17   47 1
    49   17   48 1
    50   18   49 1
    51   18   50 1
    52   21   51 1
@<TRIPOS>MOLECULE
TSA
   28    29     0     0     0
SMALL
NO_CHARGES

@<TRIPOS>ATOM
      1 C1          0.4307    0.1999    0.0000 CT        1 <0>         0.0000
      2 C2          0.4765   -0.7627    0.0000 CM        1 <0>         0.0000
      3 C3         -0.3196   -0.9377    0.0000 CM        1 <0>         0.0000
      4 C4          0.0823   -0.3712    0.0000 CT        1 <0>         0.0000
      5 O1          0.9818   -0.3305    0.0000 OH        1 <0>         0.0000
      6 C5          0.0224    0.5583    0.0000 CT        1 <0>         0.0000
      7 C6          0.5586    0.9836    0.0000 CT        1 <0>         0.0000
      8 O2         -0.8738    0.5576    0.0000 OS        1 <0>         0.0000
      9 C7         -0.9976   -0.2244    0.0000 CT        1 <0>         0.0000
     10 C8         -0.5056    0.1894    0.0000 CT        1 <0>         0.0000
     11 C9          1.2331    0.6555    0.0000 C         1 <0>         0.0000
     12 O3          1.4928    1.4605    0.0000 O         1 <0>         0.0000
     13 O4          2.0756    0.6740    0.0000 OH        1 <0>         0.0000
     14 C10        -1.5007   -0.9291    0.0000 C         1 <0>         0.0000
     15 O5         -1.3851   -1.7526    0.0000 O         1 <0>         0.0000
     16 O6         -2.3179   -0.9753    0.0000 OH        1 <0>         0.0000
     17 H1          0.6126   -0.5788    0.0000 H1        1 <0>         0.0000
     18 H2          0.2461    1.0820    0.0000 H1        1 <0>         0.0000
     19 H3         -1.5247   -0.0088    0.0000 H1        1 <0>         0.0000
     20 H4          0.4765   -0.7627    0.0000 HA        1 <0>         0.0000
     21 H5         -0.3196   -0.9377    0.0000 HA        1 <0>         0.0000
     22 H6          0.9818   -0.3305    0.0000 HO        1 <0>         0.0000
     23 H7          0.5586    0.9836    0.0000 HC        1 <0>         0.0000
     24 H8          0.5586    0.9836    0.0000 HC        1 <0>         0.0000
     25 H9         -0.5056    0.1894    0.0000 HC        1 <0>         0.0000
     26 H10        -0.5056    0.1894    0.0000 HC        1 <0>         0.0000
     27 H11         2.0756    0.6740    0.0000 HO        1 <0>         0.0000
     28 H12        -2.3179   -0.9753    0.0000 HO        1 <0>         0.0000
@<TRIPOS>BOND
     1    1    2 1
     2    1    7 1
     3    1   10 1
     4    1   11 1
     5    2    3 2
     6    3    4 1
     7    4    5 1
     8    4    6 1
     9    4   17 1
    10    6    7 1
    11    6    8 1
    12    6   18 1
    13    8    9 1
    14    9   10 1
    15    9   14 1
    16    9   19 1
    17   11   12 2
    18   11   13 1
    19   14   15 2
    20   14   16 1
    21    2   20 1
    22    3   21 1
    23    5   22 1
    24    7   23 1
    25    7   24 1
    26   10   25 1
    27   10   26 1
    28   13   27 1
    29   16   28 1
@<TRIPOS>MOLECULE
TXQ
   28    30     0     0     0
SMALL
NO_CHARGES

@<TRIPOS>ATOM
      1 O1          0.1118    1.7217    0.0000 O         1 <0>         0.0000
      2 C1          0.1118    0.8967    0.0000 C         1 <0>         0.0000
      3 C2          0.8263    0.4842    0.0000 CB        1 <0>         0.0000
      4 C3          1.5408    0.8967    0.0000 CA        1 <0>         0.0000
      5 O2          1.5408    1.7217    0.0000 OH        1 <0>         0.0000
      6 C4          2.2553    0.4842    0.0000 CA        1 <0>         0.0000
      7 C5          2.2553   -0.3408    0.0000 CA        1 <0>         0.0000
      8 C6          1.5408   -0.7533    0.0000 CA        1 <0>         0.0000
      9 O3          1.5408   -1.5783    0.0000 OH        1 <0>         0.0000
     10 C7          0.8263   -0.3408    0.0000 CB        1 <0>         0.0000
     11 C8          0.1118   -0.7533    0.0000 C         1 <0>         0.0000
     12 O4          0.1118   -1.5783    0.0000 O         1 <0>         0.0000
     13 C9         -0.6026    0.4842    0.0000 CB        1 <0>         0.0000
     14 C10        -0.6026   -0.3408    0.0000 CB        1 <0>         0.0000
     15 C11        -1.3171    0.8967    0.0000 CA        1 <0>         0.0000
     16 C12        -2.0316    0.4842    0.0000 CA        1 <0>         0.0000
     17 C13        -2.0316   -0.3408    0.0000 CA        1 <0>         0.0000
     18 O5         -2.7460   -0.7533    0.0000 OH        1 <0>         0.0000
     19 C14        -1.3171   -0.7533    0.0000 CA        1 <0>         0.0000
     20 O6         -1.3171   -1.5783    0.0000 OH        1 <0>         0.0000
     21 H1          1.5408    1.7217    0.0000 HO        1 <0>         0.0000
     22 H2          2.2553    0.4842    0.0000 HA        1 <0>         0.0000
     23 H3          2.2553   -0.3408    0.0000 HA        1 <0>         0.0000
     24 H4          1.5408   -1.5783    0.0000 HO        1 <0>         0.0000
     25 H5         -1.3171    0.8967    0.0000 HA        1 <0>         0.0000
     26 H6         -2.0316    0.4842    0.0000 HA        1 <0>         0.0000
     27 H7         -2.7460   -0.7533    0.0000 HO        1 <0>         0.0000
     28 H8         -1.3171   -1.5783    0.0000 HO        1 <0>         0.0000
@<TRIPOS>BOND
     1    1    2 2
     2    2    3 1
     3    2   13 1
     4    3    4 ar
     5    3   10 ar
     6    4    5 1
     7    4    6 ar
     8    6    7 ar
     9    7    8 ar
    10    8    9 1
    11    8   10 ar
    12   10   11 1
    13   11   12 2
    14   11   14 1
    15   13   14 ar
    16   13   15 ar
    17   14   19 ar
    18   15   16 ar
    19   16   17 ar
    20   17   18 1
    21   17   19 ar
    22   19   20 1
    23    5   21 1
    24    6   22 1
    25    7   23 1
    26    9   24 1
    27   15   25 1
    28   16   26 1
    29   18   27 1
    30   20   28 1
@<TRIPOS>MOLECULE
U03
   41    43     0     0     0
SMALL
NO_CHARGES

@<TRIPOS>ATOM
      1 C1         -0.4331   -0.0441    0.0000 CA        1 <0>         0.0000
      2 C2         -0.4331   -0.8691    0.0000 C         1 <0>         0.0000
      3 C3          0.9958   -0.8691    0.0000 CB        1 <0>         0.0000
      4 C4          0.9958   -0.0441    0.0000 CB        1 <0>         0.0000
      5 C5          0.2814    0.3684    0.0000 CA        1 <0>         0.0000
      6 C6         -1.8621   -0.0441    0.0000 CA        1 <0>         0.0000
      7 C7         -1.8621   -0.8691    0.0000 CA        1 <0>         0.0000
      8 C8         -2.5765   -1.2816    0.0000 CA        1 <0>         0.0000
      9 C9         -3.2910   -0.8691    0.0000 CA        1 <0>         0.0000
     10 C10        -3.2910   -0.0441    0.0000 CA        1 <0>         0.0000
     11 C11        -2.5765    0.3684    0.0000 CA        1 <0>         0.0000
     12 C12        -1.1476    0.3684    0.0000 CT        1 <0>         0.0000
     13 C13        -1.1476    1.1934    0.0000 CT        1 <0>         0.0000
     14 C14        -1.8621    1.6059    0.0000 CT        1 <0>         0.0000
     15 C15         1.7103   -1.2816    0.0000 CA        1 <0>         0.0000
     16 C16         2.4248   -0.8691    0.0000 CA        1 <0>         0.0000
     17 C17         2.4248   -0.0441    0.0000 CA        1 <0>         0.0000
     18 C18         1.7103    0.3684    0.0000 CA        1 <0>         0.0000
     19 C19         3.8537   -0.8691    0.0000 CT        1 <0>         0.0000
     20 O1         -1.1476   -1.2816    0.0000 O         1 <0>         0.0000
     21 O2          0.2814   -1.2816    0.0000 OS        1 <0>         0.0000
     22 O3          0.2814    1.1934    0.0000 OH        1 <0>         0.0000
     23 O4          3.1392   -1.2816    0.0000 OS        1 <0>         0.0000
     24 H1         -1.1476   -0.2155    0.0000 HC        1 <0>         0.0000
     25 H2         -1.8621   -0.8691    0.0000 HA        1 <0>         0.0000
     26 H3         -2.5765   -1.2816    0.0000 HA        1 <0>         0.0000
     27 H4         -3.2910   -0.8691    0.0000 HA        1 <0>         0.0000
     28 H5         -3.2910   -0.0441    0.0000 HA        1 <0>         0.0000
     29 H6         -2.5765    0.3684    0.0000 HA        1 <0>         0.0000
     30 H7         -1.1476    1.1934    0.0000 HC        1 <0>         0.0000
     31 H8         -1.1476    1.1934    0.0000 HC        1 <0>         0.0000
     32 H9         -1.8621    1.6059    0.0000 HC        1 <0>         0.0000
     33 H10        -1.8621    1.6059    0.0000 HC        1 <0>         0.0000
     34 H11        -1.8621    1.6059    0.0000 HC        1 <0>         0.0000
     35 H12         1.7103   -1.2816    0.0000 HA        1 <0>         0.0000
     36 H13         2.4248   -0.0441    0.0000 HA        1 <0>         0.0000
     37 H14         1.7103    0.3684    0.0000 HA        1 <0>         0.0000
     38 H15         3.8537   -0.8691    0.0000 H1        1 <0>         0.0000
     39 H16         3.8537   -0.8691    0.0000 H1        1 <0>         0.0000
     40 H17         3.8537   -0.8691    0.0000 H1        1 <0>         0.0000
     41 H18         0.2814    1.1934    0.0000 HO        1 <0>         0.0000
@<TRIPOS>BOND
     1    1    2 1
     2    1    5 2
     3    1   12 1
     4    2   20 2
     5    2   21 1
     6    3    4 ar
     7    3   15 ar
     8    3   21 1
     9    4    5 1
    10    4   18 ar
    11    5   22 1
    12    6    7 ar
    13    6   11 ar
    14    6   12 1
    15    7    8 ar
    16    8    9 ar
    17    9   10 ar
    18   10   11 ar
    19   12   13 1
    20   12   24 1
    21   13   14 1
    22   15   16 ar
    23   16   17 ar
    24   16   23 1
    25   17   18 ar
    26   19   23 1
    27    7   25 1
    28    8   26 1
    29    9   27 1
    30   10   28 1
    31   11   29 1
    32   13   30 1
    33   13   31 1
    34   14   32 1
    35   14   33 1
    36   14   34 1
    37   15   35 1
    38   17   36 1
    39   18   37 1
    40   19   38 1
    41   19   39 1
    42   19   40 1
    43   22   41 1
@<TRIPOS>MOLECULE
UIN
   47    49     0     0     0
SMALL
NO_CHARGES

@<TRIPOS>ATOM
      1 C1         -0.6994   -0.3025    0.0000 CA        1 <0>         0.0000
      2 C2         -0.6994   -1.1275    0.0000 C         1 <0>         0.0000
      3 O1         -1.4139   -1.5400    0.0000 O         1 <0>         0.0000
      4 O2          0.0150   -1.5400    0.0000 OS        1 <0>         0.0000
      5 C3          0.7295   -1.1275    0.0000 CA        1 <0>         0.0000
      6 C4          0.7295   -0.3025    0.0000 CA        1 <0>         0.0000
      7 C5          0.0150    0.1100    0.0000 CA        1 <0>         0.0000
      8 O3          0.0150    0.9350    0.0000 OH        1 <0>         0.0000
      9 C6         -1.4139    0.9350    0.0000 CA        1 <0>         0.0000
     10 C7         -2.1284    1.3475    0.0000 CA        1 <0>         0.0000
     11 C8         -2.1284    2.1725    0.0000 CA        1 <0>         0.0000
     12 C9         -1.4139    2.5850    0.0000 CA        1 <0>         0.0000
     13 C10        -0.6994    2.1725    0.0000 CA        1 <0>         0.0000
     14 C11        -0.6994    1.3475    0.0000 CA        1 <0>         0.0000
     15 C12        -1.4139    0.1100    0.0000 CT        1 <0>         0.0000
     16 C13        -2.1284   -0.3025    0.0000 CT        1 <0>         0.0000
     17 C14        -2.8429    0.1100    0.0000 CT        1 <0>         0.0000
     18 C15         1.3129   -1.7109    0.0000 CT        1 <0>         0.0000
     19 C16         2.1379   -1.7109    0.0000 CT        1 <0>         0.0000
     20 C17         2.7212   -1.1275    0.0000 CT        1 <0>         0.0000
     21 C18         2.7212   -0.3025    0.0000 CT        1 <0>         0.0000
     22 C19         2.1379    0.2808    0.0000 CT        1 <0>         0.0000
     23 C20         1.3129    0.2808    0.0000 CT        1 <0>         0.0000
     24 H1         -0.9082    0.4019    0.0000 HC        1 <0>         0.0000
     25 H2          0.0150    0.9350    0.0000 HO        1 <0>         0.0000
     26 H3         -2.1284    1.3475    0.0000 HA        1 <0>         0.0000
     27 H4         -2.1284    2.1725    0.0000 HA        1 <0>         0.0000
     28 H5         -1.4139    2.5850    0.0000 HA        1 <0>         0.0000
     29 H6         -0.6994    2.1725    0.0000 HA        1 <0>         0.0000
     30 H7         -0.6994    1.3475    0.0000 HA        1 <0>         0.0000
     31 H8         -2.1284   -0.3025    0.0000 HC        1 <0>         0.0000
     32 H9         -2.1284   -0.3025    0.0000 HC        1 <0>         0.0000
     33 H10        -2.8429    0.1100    0.0000 HC        1 <0>         0.0000
     34 H11        -2.8429    0.1100    0.0000 HC        1 <0>         0.0000
     35 H12        -2.8429    0.1100    0.0000 HC        1 <0>         0.0000
     36 H13         1.3129   -1.7109    0.0000 HC        1 <0>         0.0000
     37 H14         1.3129   -1.7109    0.0000 HC        1 <0>         0.0000
     38 H15         2.1379   -1.7109    0.0000 HC        1 <0>         0.0000
     39 H16         2.1379   -1.7109    0.0000 HC        1 <0>         0.0000
     40 H17         2.7212   -1.1275    0.0000 HC        1 <0>         0.0000
     41 H18         2.7212   -1.1275    0.0000 HC        1 <0>         0.0000
     42 H19         2.7212   -0.3025    0.0000 HC        1 <0>         0.0000
     43 H20         2.7212   -0.3025    0.0000 HC        1 <0>         0.0000
     44 H21         2.1379    0.2808    0.0000 HC        1 <0>         0.0000
     45 H22         2.1379    0.2808    0.0000 HC        1 <0>         0.0000
     46 H23         1.3129    0.2808    0.0000 HC        1 <0>         0.0000
     47 H24         1.3129    0.2808    0.0000 HC        1 <0>         0.0000
@<TRIPOS>BOND
     1    1    2 1
     2    1    7 2
     3    1   15 1
     4    2    3 2
     5    2    4 1
     6    4    5 1
     7    5    6 2
     8    5   18 1
     9    6    7 1
    10    6   23 1
    11    7    8 1
    12    9   10 ar
    13    9   14 ar
    14    9   15 1
    15   10   11 ar
    16   11   12 ar
    17   12   13 ar
    18   13   14 ar
    19   15   16 1
    20   15   24 1
    21   16   17 1
    22   18   19 1
    23   19   20 1
    24   20   21 1
    25   21   22 1
    26   22   23 1
    27    8   25 1
    28   10   26 1
    29   11   27 1
    30   12   28 1
    31   13   29 1
    32   14   30 1
    33   16   31 1
    34   16   32 1
    35   17   33 1
    36   17   34 1
    37   17   35 1
    38   18   36 1
    39   18   37 1
    40   19   38 1
    41   19   39 1
    42   20   40 1
    43   20   41 1
    44   21   42 1
    45   21   43 1
    46   22   44 1
    47   22   45 1
    48   23   46 1
    49   23   47 1
@<TRIPOS>MOLECULE
UOC
   34    33     0     0     0
SMALL
NO_CHARGES

@<TRIPOS>ATOM
      1 C1         -3.1158    0.2362    0.0000 CT        1 <0>         0.0000
      2 C2         -2.4014   -0.1763    0.0000 CT        1 <0>         0.0000
      3 C3         -1.6868    0.2362    0.0000 CT        1 <0>         0.0000
      4 C4         -0.9723   -0.1763    0.0000 CT        1 <0>         0.0000
      5 C5         -0.2578    0.2362    0.0000 CT        1 <0>         0.0000
      6 C6          0.4567   -0.1763    0.0000 CT        1 <0>         0.0000
      7 C7          1.1713    0.2362    0.0000 CT        1 <0>         0.0000
      8 C8          1.8857   -0.1763    0.0000 CT        1 <0>         0.0000
      9 C9          2.6003    0.2362    0.0000 CT        1 <0>         0.0000
     10 C10         3.3148   -0.1763    0.0000 C         1 <0>         0.0000
     11 O1          4.0294    0.2362    0.0000 O         1 <0>         0.0000
     12 C11         3.3148   -1.0014    0.0000 CT        1 <0>         0.0000
     13 H1         -3.1158    0.2362    0.0000 HC        1 <0>         0.0000
     14 H2         -3.1158    0.2362    0.0000 HC        1 <0>         0.0000
     15 H3         -3.1158    0.2362    0.0000 HC        1 <0>         0.0000
     16 H4         -2.4014   -0.1763    0.0000 HC        1 <0>         0.0000
     17 H5         -2.4014   -0.1763    0.0000 HC        1 <0>         0.0000
     18 H6         -1.6868    0.2362    0.0000 HC        1 <0>         0.0000
     19 H7         -1.6868    0.2362    0.0000 HC        1 <0>         0.0000
     20 H8         -0.9723   -0.1763    0.0000 HC        1 <0>         0.0000
     21 H9         -0.9723   -0.1763    0.0000 HC        1 <0>         0.0000
     22 H10        -0.2578    0.2362    0.0000 HC        1 <0>         0.0000
     23 H11        -0.2578    0.2362    0.0000 HC        1 <0>         0.0000
     24 H12         0.4567   -0.1763    0.0000 HC        1 <0>         0.0000
     25 H13         0.4567   -0.1763    0.0000 HC        1 <0>         0.0000
     26 H14         1.1713    0.2362    0.0000 HC        1 <0>         0.0000
     27 H15         1.1713    0.2362    0.0000 HC        1 <0>         0.0000
     28 H16         1.8857   -0.1763    0.0000 HC        1 <0>         0.0000
     29 H17         1.8857   -0.1763    0.0000 HC        1 <0>         0.0000
     30 H18         2.6003    0.2362    0.0000 HC        1 <0>         0.0000
     31 H19         2.6003    0.2362    0.0000 HC        1 <0>         0.0000
     32 H20         3.3148   -1.0014    0.0000 HC        1 <0>         0.0000
     33 H21         3.3148   -1.0014    0.0000 HC        1 <0>         0.0000
     34 H22         3.3148   -1.0014    0.0000 HC        1 <0>         0.0000
@<TRIPOS>BOND
     1    1    2 1
     2    2    3 1
     3    3    4 1
     4    4    5 1
     5    5    6 1
     6    6    7 1
     7    7    8 1
     8    8    9 1
     9    9   10 1
    10   10   11 2
    11   10   12 1
    12    1   13 1
    13    1   14 1
    14    1   15 1
    15    2   16 1
    16    2   17 1
    17    3   18 1
    18    3   19 1
    19    4   20 1
    20    4   21 1
    21    5   22 1
    22    5   23 1
    23    6   24 1
    24    6   25 1
    25    7   26 1
    26    7   27 1
    27    8   28 1
    28    8   29 1
    29    9   30 1
    30    9   31 1
    31   12   32 1
    32   12   33 1
    33   12   34 1
@<TRIPOS>MOLECULE
*****
   36    36     0     0     0
SMALL
NO_CHARGES

@<TRIPOS>ATOM
      1 O1         16.1425   -7.4938    0.0000 OS        1 <0>         0.0000
      2 O2         17.5716   -8.3188    0.0000 OS        1 <0>         0.0000
      3 O3         16.1425   -5.8437    0.0000 O         1 <0>         0.0000
      4 O4         19.0005   -7.4938    0.0000 O         1 <0>         0.0000
      5 C1         17.5716   -5.0187    0.0000 CT        1 <0>         0.0000
      6 C2         16.1425   -8.3188    0.0000 CT        1 <0>         0.0000
      7 C3         18.2860   -8.7313    0.0000 CT        1 <0>         0.0000
      8 C4         17.5716   -3.3687    0.0000 CT        1 <0>         0.0000
      9 C5         19.0005   -3.3687    0.0000 CT        1 <0>         0.0000
     10 C6         19.0005   -5.8437    0.0000 CT        1 <0>         0.0000
     11 C7         18.2860   -3.7812    0.0000 CM        1 <0>         0.0000
     12 C8         18.2860   -4.6062    0.0000 CM        1 <0>         0.0000
     13 C9         16.8570   -6.2563    0.0000 C         1 <0>         0.0000
     14 C10        18.2860   -7.0813    0.0000 C         1 <0>         0.0000
     15 C11        16.8570   -7.0813    0.0000 CA        1 <0>         0.0000
     16 C12        17.5716   -7.4938    0.0000 CA        1 <0>         0.0000
     17 C13        17.5716   -5.8437    0.0000 CA        1 <0>         0.0000
     18 C14        18.2860   -6.2563    0.0000 CA        1 <0>         0.0000
     19 H1         17.5716   -5.0187    0.0000 HC        1 <0>         0.0000
     20 H2         17.5716   -5.0187    0.0000 HC        1 <0>         0.0000
     21 H3         16.1425   -8.3188    0.0000 H1        1 <0>         0.0000
     22 H4         16.1425   -8.3188    0.0000 H1        1 <0>         0.0000
     23 H5         16.1425   -8.3188    0.0000 H1        1 <0>         0.0000
     24 H6         18.2860   -8.7313    0.0000 H1        1 <0>         0.0000
     25 H7         18.2860   -8.7313    0.0000 H1        1 <0>         0.0000
     26 H8         18.2860   -8.7313    0.0000 H1        1 <0>         0.0000
     27 H9         17.5716   -3.3687    0.0000 HC        1 <0>         0.0000
     28 H10        17.5716   -3.3687    0.0000 HC        1 <0>         0.0000
     29 H11        17.5716   -3.3687    0.0000 HC        1 <0>         0.0000
     30 H12        19.0005   -3.3687    0.0000 HC        1 <0>         0.0000
     31 H13        19.0005   -3.3687    0.0000 HC        1 <0>         0.0000
     32 H14        19.0005   -3.3687    0.0000 HC        1 <0>         0.0000
     33 H15        19.0005   -5.8437    0.0000 HC        1 <0>         0.0000
     34 H16        19.0005   -5.8437    0.0000 HC        1 <0>         0.0000
     35 H17        19.0005   -5.8437    0.0000 HC        1 <0>         0.0000
     36 H18        18.2860   -4.6062    0.0000 HA        1 <0>         0.0000
@<TRIPOS>BOND
     1    1    6 1
     2    1   15 1
     3    2    7 1
     4    2   16 1
     5    3   13 2
     6    4   14 2
     7    5   12 1
     8    5   17 1
     9    8   11 1
    10    9   11 1
    11   10   18 1
    12   11   12 2
    13   13   15 1
    14   13   17 1
    15   14   16 1
    16   14   18 1
    17   15   16 2
    18   17   18 2
    19    5   19 1
    20    5   20 1
    21    6   21 1
    22    6   22 1
    23    6   23 1
    24    7   24 1
    25    7   25 1
    26    7   26 1
    27    8   27 1
    28    8   28 1
    29    8   29 1
    30    9   30 1
    31    9   31 1
    32    9   32 1
    33   10   33 1
    34   10   34 1
    35   10   35 1
    36   12   36 1
@<TRIPOS>MOLECULE
*****
   49    49     0     0     0
SMALL
NO_CHARGES

@<TRIPOS>ATOM
      1 O1         15.4413   -9.9688    0.0000 OS        1 <0>         0.0000
      2 O2         16.8704  -10.7938    0.0000 OS        1 <0>         0.0000
      3 O3         15.4413   -8.3188    0.0000 O         1 <0>         0.0000
      4 O4         18.2992   -9.9688    0.0000 O         1 <0>         0.0000
      5 C1         16.8704   -7.4938    0.0000 CT        1 <0>         0.0000
      6 C2         16.8704   -8.3188    0.0000 CA        1 <0>         0.0000
      7 C3         18.2992   -5.8437    0.0000 CT        1 <0>         0.0000
      8 C4         17.5847   -6.2562    0.0000 CM        1 <0>         0.0000
      9 C5         17.5847   -7.0812    0.0000 CM        1 <0>         0.0000
     10 C6         17.5847   -8.7313    0.0000 CA        1 <0>         0.0000
     11 C7         18.2992   -5.0187    0.0000 CT        1 <0>         0.0000
     12 C8         16.1557   -8.7313    0.0000 C         1 <0>         0.0000
     13 C9         17.5847   -9.5563    0.0000 C         1 <0>         0.0000
     14 C10        16.1557   -9.5563    0.0000 CA        1 <0>         0.0000
     15 C11        16.8704   -5.8437    0.0000 CT        1 <0>         0.0000
     16 C12        16.8704   -9.9688    0.0000 CA        1 <0>         0.0000
     17 C13        19.0136   -4.6062    0.0000 CM        1 <0>         0.0000
     18 C14        18.2992   -8.3188    0.0000 CT        1 <0>         0.0000
     19 C15        19.0136   -3.7812    0.0000 CM        1 <0>         0.0000
     20 C16        18.2992   -3.3687    0.0000 CT        1 <0>         0.0000
     21 C17        19.7282   -3.3687    0.0000 CT        1 <0>         0.0000
     22 C18        15.4413  -10.7938    0.0000 CT        1 <0>         0.0000
     23 C19        17.5847  -11.2063    0.0000 CT        1 <0>         0.0000
     24 H1         16.8704   -7.4938    0.0000 HC        1 <0>         0.0000
     25 H2         16.8704   -7.4938    0.0000 HC        1 <0>         0.0000
     26 H3         18.2992   -5.8437    0.0000 HC        1 <0>         0.0000
     27 H4         18.2992   -5.8437    0.0000 HC        1 <0>         0.0000
     28 H5         17.5847   -7.0812    0.0000 HA        1 <0>         0.0000
     29 H6         18.2992   -5.0187    0.0000 HC        1 <0>         0.0000
     30 H7         18.2992   -5.0187    0.0000 HC        1 <0>         0.0000
     31 H8         16.8704   -5.8437    0.0000 HC        1 <0>         0.0000
     32 H9         16.8704   -5.8437    0.0000 HC        1 <0>         0.0000
     33 H10        16.8704   -5.8437    0.0000 HC        1 <0>         0.0000
     34 H11        19.0136   -4.6062    0.0000 HA        1 <0>         0.0000
     35 H12        18.2992   -8.3188    0.0000 HC        1 <0>         0.0000
     36 H13        18.2992   -8.3188    0.0000 HC        1 <0>         0.0000
     37 H14        18.2992   -8.3188    0.0000 HC        1 <0>         0.0000
     38 H15        18.2992   -3.3687    0.0000 HC        1 <0>         0.0000
     39 H16        18.2992   -3.3687    0.0000 HC        1 <0>         0.0000
     40 H17        18.2992   -3.3687    0.0000 HC        1 <0>         0.0000
     41 H18        19.7282   -3.3687    0.0000 HC        1 <0>         0.0000
     42 H19        19.7282   -3.3687    0.0000 HC        1 <0>         0.0000
     43 H20        19.7282   -3.3687    0.0000 HC        1 <0>         0.0000
     44 H21        15.4413  -10.7938    0.0000 H1        1 <0>         0.0000
     45 H22        15.4413  -10.7938    0.0000 H1        1 <0>         0.0000
     46 H23        15.4413  -10.7938    0.0000 H1        1 <0>         0.0000
     47 H24        17.5847  -11.2063    0.0000 H1        1 <0>         0.0000
     48 H25        17.5847  -11.2063    0.0000 H1        1 <0>         0.0000
     49 H26        17.5847  -11.2063    0.0000 H1        1 <0>         0.0000
@<TRIPOS>BOND
     1    1   14 1
     2    1   22 1
     3    2   16 1
     4    2   23 1
     5    3   12 2
     6    4   13 2
     7    5    6 1
     8    5    9 1
     9    6   10 2
    10    6   12 1
    11    7    8 1
    12    7   11 1
    13    8    9 2
    14    8   15 1
    15   10   13 1
    16   10   18 1
    17   11   17 1
    18   12   14 1
    19   13   16 1
    20   14   16 2
    21   17   19 2
    22   19   20 1
    23   19   21 1
    24    5   24 1
    25    5   25 1
    26    7   26 1
    27    7   27 1
    28    9   28 1
    29   11   29 1
    30   11   30 1
    31   15   31 1
    32   15   32 1
    33   15   33 1
    34   17   34 1
    35   18   35 1
    36   18   36 1
    37   18   37 1
    38   20   38 1
    39   20   39 1
    40   20   40 1
    41   21   41 1
    42   21   42 1
    43   21   43 1
    44   22   44 1
    45   22   45 1
    46   22   46 1
    47   23   47 1
    48   23   48 1
    49   23   49 1
@<TRIPOS>MOLECULE
VD1
   61    63     0     0     0
SMALL
NO_CHARGES

@<TRIPOS>ATOM
      1 O1         -1.4972    3.5961    0.0000 OH        1 <0>         0.0000
      2 C1         -0.7827    3.1836    0.0000 CT        1 <0>         0.0000
      3 C2         -0.0682    3.5961    0.0000 CM        1 <0>         0.0000
      4 C3         -0.0682    4.4211    0.0000 CM        1 <0>         0.0000
      5 C4          0.6462    3.1836    0.0000 CT        1 <0>         0.0000
      6 O2          1.3607    3.5961    0.0000 OH        1 <0>         0.0000
      7 C5         -0.7827    2.3586    0.0000 CT        1 <0>         0.0000
      8 C6         -0.0682    1.9461    0.0000 CM        1 <0>         0.0000
      9 C7          0.6462    2.3586    0.0000 CT        1 <0>         0.0000
     10 C8         -0.0682    1.1211    0.0000 CM        1 <0>         0.0000
     11 C9          0.6462    0.7086    0.0000 CM        1 <0>         0.0000
     12 C10         0.6462   -0.1164    0.0000 CM        1 <0>         0.0000
     13 C11         1.3607   -0.5289    0.0000 CT        1 <0>         0.0000
     14 C12         1.3607   -1.3539    0.0000 CT        1 <0>         0.0000
     15 C13         0.6462   -1.7664    0.0000 CT        1 <0>         0.0000
     16 C14        -0.0682   -1.3539    0.0000 CT        1 <0>         0.0000
     17 C15        -0.1545   -2.1743    0.0000 CT        1 <0>         0.0000
     18 C16        -0.0682   -0.5289    0.0000 CT        1 <0>         0.0000
     19 C17        -0.8529   -0.2739    0.0000 CT        1 <0>         0.0000
     20 C18        -0.8529   -1.6088    0.0000 CT        1 <0>         0.0000
     21 C19        -1.3378   -0.9414    0.0000 CT        1 <0>         0.0000
     22 C20        -1.1078   -2.3934    0.0000 CT        1 <0>         0.0000
     23 C21        -0.5558   -3.0065    0.0000 CT        1 <0>         0.0000
     24 C22        -1.9148   -2.5649    0.0000 CT        1 <0>         0.0000
     25 C23        -2.1697   -3.3496    0.0000 CT        1 <0>         0.0000
     26 H1         -0.7827    3.7676    0.0000 H1        1 <0>         0.0000
     27 H2          0.6462    3.7676    0.0000 H1        1 <0>         0.0000
     28 H3         -0.1293    0.0519    0.0000 HC        1 <0>         0.0000
     29 H4         -0.3236   -1.8556    0.0000 HC        1 <0>         0.0000
     30 H5         -0.5296   -2.4747    0.0000 HC        1 <0>         0.0000
     31 H6         -1.4972    3.5961    0.0000 HO        1 <0>         0.0000
     32 H7         -0.0682    4.4211    0.0000 HA        1 <0>         0.0000
     33 H8         -0.0682    4.4211    0.0000 HA        1 <0>         0.0000
     34 H9          1.3607    3.5961    0.0000 HO        1 <0>         0.0000
     35 H10        -0.7827    2.3586    0.0000 HC        1 <0>         0.0000
     36 H11        -0.7827    2.3586    0.0000 HC        1 <0>         0.0000
     37 H12         0.6462    2.3586    0.0000 HC        1 <0>         0.0000
     38 H13         0.6462    2.3586    0.0000 HC        1 <0>         0.0000
     39 H14        -0.0682    1.1211    0.0000 HA        1 <0>         0.0000
     40 H15         0.6462    0.7086    0.0000 HA        1 <0>         0.0000
     41 H16         1.3607   -0.5289    0.0000 HC        1 <0>         0.0000
     42 H17         1.3607   -0.5289    0.0000 HC        1 <0>         0.0000
     43 H18         1.3607   -1.3539    0.0000 HC        1 <0>         0.0000
     44 H19         1.3607   -1.3539    0.0000 HC        1 <0>         0.0000
     45 H20         0.6462   -1.7664    0.0000 HC        1 <0>         0.0000
     46 H21         0.6462   -1.7664    0.0000 HC        1 <0>         0.0000
     47 H22        -0.1545   -2.1743    0.0000 HC        1 <0>         0.0000
     48 H23        -0.1545   -2.1743    0.0000 HC        1 <0>         0.0000
     49 H24        -0.1545   -2.1743    0.0000 HC        1 <0>         0.0000
     50 H25        -0.8529   -0.2739    0.0000 HC        1 <0>         0.0000
     51 H26        -0.8529   -0.2739    0.0000 HC        1 <0>         0.0000
     52 H27        -1.3378   -0.9414    0.0000 HC        1 <0>         0.0000
     53 H28        -1.3378   -0.9414    0.0000 HC        1 <0>         0.0000
     54 H29        -0.5558   -3.0065    0.0000 HC        1 <0>         0.0000
     55 H30        -0.5558   -3.0065    0.0000 HC        1 <0>         0.0000
     56 H31        -0.5558   -3.0065    0.0000 HC        1 <0>         0.0000
     57 H32        -1.9148   -2.5649    0.0000 HC        1 <0>         0.0000
     58 H33        -1.9148   -2.5649    0.0000 HC        1 <0>         0.0000
     59 H34        -2.1697   -3.3496    0.0000 HC        1 <0>         0.0000
     60 H35        -2.1697   -3.3496    0.0000 HC        1 <0>         0.0000
     61 H36        -2.1697   -3.3496    0.0000 HC        1 <0>         0.0000
@<TRIPOS>BOND
     1    1    2 1
     2    2    3 1
     3    2    7 1
     4    2   26 1
     5    3    4 2
     6    3    5 1
     7    5    6 1
     8    5    9 1
     9    5   27 1
    10    7    8 1
    11    8    9 1
    12    8   10 2
    13   10   11 1
    14   11   12 2
    15   12   13 1
    16   12   18 1
    17   13   14 1
    18   14   15 1
    19   15   16 1
    20   16   17 1
    21   16   18 1
    22   16   20 1
    23   18   19 1
    24   18   28 1
    25   19   21 1
    26   20   21 1
    27   20   22 1
    28   20   29 1
    29   22   23 1
    30   22   24 1
    31   22   30 1
    32   24   25 1
    33    1   31 1
    34    4   32 1
    35    4   33 1
    36    6   34 1
    37    7   35 1
    38    7   36 1
    39    9   37 1
    40    9   38 1
    41   10   39 1
    42   11   40 1
    43   13   41 1
    44   13   42 1
    45   14   43 1
    46   14   44 1
    47   15   45 1
    48   15   46 1
    49   17   47 1
    50   17   48 1
    51   17   49 1
    52   19   50 1
    53   19   51 1
    54   21   52 1
    55   21   53 1
    56   23   54 1
    57   23   55 1
    58   23   56 1
    59   24   57 1
    60   24   58 1
    61   25   59 1
    62   25   60 1
    63   25   61 1
@<TRIPOS>MOLECULE
VII
   35    37     0     0     0
SMALL
NO_CHARGES

@<TRIPOS>ATOM
      1 C1         -0.8441    1.6704    0.0000 CA        1 <0>         0.0000
      2 C2         -0.8441    2.4954    0.0000 CA        1 <0>         0.0000
      3 C3         -0.1297    2.9079    0.0000 CA        1 <0>         0.0000
      4 C4          0.5848    2.4954    0.0000 CA        1 <0>         0.0000
      5 C5          0.5848    1.6704    0.0000 CA        1 <0>         0.0000
      6 C6         -0.1297    1.2579    0.0000 CA        1 <0>         0.0000
      7 C7         -0.1297    0.4329    0.0000 CW        1 <0>         0.0000
      8 O1          0.5378   -0.0520    0.0000 OS        1 <0>         0.0000
      9 C8         -0.7971   -0.0520    0.0000 CC        1 <0>         0.0000
     10 C9         -1.5817    0.2029    0.0000 C         1 <0>         0.0000
     11 O2         -2.1948   -0.3491    0.0000 O         1 <0>         0.0000
     12 O3         -1.7532    1.0099    0.0000 OH        1 <0>         0.0000
     13 C10        -0.5422   -0.8366    0.0000 CC        1 <0>         0.0000
     14 C11        -1.0271   -1.5041    0.0000 C         1 <0>         0.0000
     15 O4         -0.6915   -2.2577    0.0000 O         1 <0>         0.0000
     16 O5         -1.8476   -1.4178    0.0000 OH        1 <0>         0.0000
     17 C12         0.2828   -0.8366    0.0000 CW        1 <0>         0.0000
     18 C13         0.7678   -1.5041    0.0000 CA        1 <0>         0.0000
     19 C14         1.5882   -1.4178    0.0000 CA        1 <0>         0.0000
     20 C15         2.0732   -2.0853    0.0000 CA        1 <0>         0.0000
     21 C16         1.7376   -2.8389    0.0000 CA        1 <0>         0.0000
     22 C17         0.9171   -2.9252    0.0000 CA        1 <0>         0.0000
     23 C18         0.4322   -2.2577    0.0000 CA        1 <0>         0.0000
     24 H1         -0.8441    1.6704    0.0000 HA        1 <0>         0.0000
     25 H2         -0.8441    2.4954    0.0000 HA        1 <0>         0.0000
     26 H3         -0.1297    2.9079    0.0000 HA        1 <0>         0.0000
     27 H4          0.5848    2.4954    0.0000 HA        1 <0>         0.0000
     28 H5          0.5848    1.6704    0.0000 HA        1 <0>         0.0000
     29 H6         -1.7532    1.0099    0.0000 HO        1 <0>         0.0000
     30 H7         -1.8476   -1.4178    0.0000 HO        1 <0>         0.0000
     31 H8          1.5882   -1.4178    0.0000 HA        1 <0>         0.0000
     32 H9          2.0732   -2.0853    0.0000 HA        1 <0>         0.0000
     33 H10         1.7376   -2.8389    0.0000 HA        1 <0>         0.0000
     34 H11         0.9171   -2.9252    0.0000 HA        1 <0>         0.0000
     35 H12         0.4322   -2.2577    0.0000 HA        1 <0>         0.0000
@<TRIPOS>BOND
     1    1    2 ar
     2    1    6 ar
     3    2    3 ar
     4    3    4 ar
     5    4    5 ar
     6    5    6 ar
     7    6    7 1
     8    7    8 1
     9    7    9 2
    10    8   17 1
    11    9   10 1
    12    9   13 1
    13   10   11 2
    14   10   12 1
    15   13   14 1
    16   13   17 2
    17   14   15 2
    18   14   16 1
    19   17   18 1
    20   18   19 ar
    21   18   23 ar
    22   19   20 ar
    23   20   21 ar
    24   21   22 ar
    25   22   23 ar
    26    1   24 1
    27    2   25 1
    28    3   26 1
    29    4   27 1
    30    5   28 1
    31   12   29 1
    32   16   30 1
    33   19   31 1
    34   20   32 1
    35   21   33 1
    36   22   34 1
    37   23   35 1
@<TRIPOS>MOLECULE
VXX
   23    23     0     0     0
SMALL
NO_CHARGES

@<TRIPOS>ATOM
      1 C1          2.0879   -0.5069    0.0000 CA        1 <0>         0.0000
      2 C2          2.0879   -1.3319    0.0000 CA        1 <0>         0.0000
      3 C3          1.3735   -0.0944    0.0000 CA        1 <0>         0.0000
      4 C4          1.3735   -1.7444    0.0000 CA        1 <0>         0.0000
      5 C5          0.6590   -0.5069    0.0000 CA        1 <0>         0.0000
      6 O1         -0.0555   -0.0944    0.0000 OS        1 <0>         0.0000
      7 C6          0.6590   -1.3319    0.0000 CA        1 <0>         0.0000
      8 C7          2.8024   -0.0944    0.0000 C         1 <0>         0.0000
      9 C8         -0.7699   -0.5069    0.0000 CT        1 <0>         0.0000
     10 O2          2.8024    0.7306    0.0000 O         1 <0>         0.0000
     11 O3          3.5169   -0.5069    0.0000 OS        1 <0>         0.0000
     12 O4         -0.0555   -1.7444    0.0000 OH        1 <0>         0.0000
     13 C9          4.2313   -0.0944    0.0000 CT        1 <0>         0.0000
     14 H1          2.0879   -1.3319    0.0000 HA        1 <0>         0.0000
     15 H2          1.3735   -0.0944    0.0000 HA        1 <0>         0.0000
     16 H3          1.3735   -1.7444    0.0000 HA        1 <0>         0.0000
     17 H4         -0.7699   -0.5069    0.0000 H1        1 <0>         0.0000
     18 H5         -0.7699   -0.5069    0.0000 H1        1 <0>         0.0000
     19 H6         -0.7699   -0.5069    0.0000 H1        1 <0>         0.0000
     20 H7         -0.0555   -1.7444    0.0000 HO        1 <0>         0.0000
     21 H8          4.2313   -0.0944    0.0000 H1        1 <0>         0.0000
     22 H9          4.2313   -0.0944    0.0000 H1        1 <0>         0.0000
     23 H10         4.2313   -0.0944    0.0000 H1        1 <0>         0.0000
@<TRIPOS>BOND
     1    1    2 ar
     2    1    3 ar
     3    1    8 1
     4    2    4 ar
     5    3    5 ar
     6    4    7 ar
     7    5    6 1
     8    5    7 ar
     9    6    9 1
    10    7   12 1
    11    8   10 2
    12    8   11 1
    13   11   13 1
    14    2   14 1
    15    3   15 1
    16    4   16 1
    17    9   17 1
    18    9   18 1
    19    9   19 1
    20   12   20 1
    21   13   21 1
    22   13   22 1
    23   13   23 1
@<TRIPOS>MOLECULE
WRR
   41    43     0     0     0
SMALL
NO_CHARGES

@<TRIPOS>ATOM
      1 C1          1.8608   -0.0307    0.0000 CB        1 <0>         0.0000
      2 C2         -0.2826    0.3818    0.0000 CT        1 <0>         0.0000
      3 C3         -0.2826    1.2068    0.0000 CT        1 <0>         0.0000
      4 C4         -0.9971    1.6193    0.0000 CT        1 <0>         0.0000
      5 C5         -1.7116    1.2068    0.0000 CT        1 <0>         0.0000
      6 C6         -0.9971   -0.0307    0.0000 CA        1 <0>         0.0000
      7 C7         -0.9971   -0.8557    0.0000 CA        1 <0>         0.0000
      8 C8         -1.7116   -1.2682    0.0000 CA        1 <0>         0.0000
      9 C9         -2.4260   -0.8557    0.0000 CA        1 <0>         0.0000
     10 C10        -2.4260   -0.0307    0.0000 CA        1 <0>         0.0000
     11 C11         0.4319   -0.8557    0.0000 C         1 <0>         0.0000
     12 C12        -1.7116    0.3818    0.0000 CA        1 <0>         0.0000
     13 C13         0.4319   -0.0307    0.0000 CA        1 <0>         0.0000
     14 C14         1.1463    0.3818    0.0000 CA        1 <0>         0.0000
     15 C15         2.5753    0.3818    0.0000 CA        1 <0>         0.0000
     16 C16         3.2897   -0.0307    0.0000 CA        1 <0>         0.0000
     17 C17         3.2897   -0.8557    0.0000 CA        1 <0>         0.0000
     18 C18         2.5753   -1.2682    0.0000 CA        1 <0>         0.0000
     19 C19         1.8608   -0.8557    0.0000 CB        1 <0>         0.0000
     20 O1          1.1463   -1.2682    0.0000 OS        1 <0>         0.0000
     21 O2         -0.2826   -1.2682    0.0000 O         1 <0>         0.0000
     22 O3         -0.9971    2.4443    0.0000 OH        1 <0>         0.0000
     23 O4          1.1463    1.2068    0.0000 OH        1 <0>         0.0000
     24 H1         -0.7883    0.6738    0.0000 HC        1 <0>         0.0000
     25 H2         -0.9971    1.0354    0.0000 H1        1 <0>         0.0000
     26 H3         -0.2826    1.2068    0.0000 HC        1 <0>         0.0000
     27 H4         -0.2826    1.2068    0.0000 HC        1 <0>         0.0000
     28 H5         -1.7116    1.2068    0.0000 HC        1 <0>         0.0000
     29 H6         -1.7116    1.2068    0.0000 HC        1 <0>         0.0000
     30 H7         -1.7116    1.2068    0.0000 HC        1 <0>         0.0000
     31 H8         -0.9971   -0.8557    0.0000 HA        1 <0>         0.0000
     32 H9         -1.7116   -1.2682    0.0000 HA        1 <0>         0.0000
     33 H10        -2.4260   -0.8557    0.0000 HA        1 <0>         0.0000
     34 H11        -2.4260   -0.0307    0.0000 HA        1 <0>         0.0000
     35 H12        -1.7116    0.3818    0.0000 HA        1 <0>         0.0000
     36 H13         2.5753    0.3818    0.0000 HA        1 <0>         0.0000
     37 H14         3.2897   -0.0307    0.0000 HA        1 <0>         0.0000
     38 H15         3.2897   -0.8557    0.0000 HA        1 <0>         0.0000
     39 H16         2.5753   -1.2682    0.0000 HA        1 <0>         0.0000
     40 H17        -0.9971    2.4443    0.0000 HO        1 <0>         0.0000
     41 H18         1.1463    1.2068    0.0000 HO        1 <0>         0.0000
@<TRIPOS>BOND
     1    1   14 1
     2    1   15 ar
     3    1   19 ar
     4    2    3 1
     5    2    6 1
     6    2   13 1
     7    2   24 1
     8    3    4 1
     9    4    5 1
    10    4   22 1
    11    4   25 1
    12    6    7 ar
    13    6   12 ar
    14    7    8 ar
    15    8    9 ar
    16    9   10 ar
    17   10   12 ar
    18   11   13 1
    19   11   20 1
    20   11   21 2
    21   13   14 2
    22   14   23 1
    23   15   16 ar
    24   16   17 ar
    25   17   18 ar
    26   18   19 ar
    27   19   20 1
    28    3   26 1
    29    3   27 1
    30    5   28 1
    31    5   29 1
    32    5   30 1
    33    7   31 1
    34    8   32 1
    35    9   33 1
    36   10   34 1
    37   12   35 1
    38   15   36 1
    39   16   37 1
    40   17   38 1
    41   18   39 1
    42   22   40 1
    43   23   41 1
@<TRIPOS>MOLECULE
WST
   39    42     0     0     0
SMALL
NO_CHARGES

@<TRIPOS>ATOM
      1 C1          0.9841   -1.0938    0.0000 CA        1 <0>         0.0000
      2 C2          1.4187   -1.7950    0.0000 CA        1 <0>         0.0000
      3 O1          1.0287   -2.5220    0.0000 OH        1 <0>         0.0000
      4 C3          2.2433   -1.7693    0.0000 CA        1 <0>         0.0000
      5 C4          2.6333   -1.0423    0.0000 CA        1 <0>         0.0000
      6 C5          2.1987   -0.3410    0.0000 CA        1 <0>         0.0000
      7 C6          1.3741   -0.3668    0.0000 CA        1 <0>         0.0000
      8 O2          0.9395    0.3345    0.0000 OS        1 <0>         0.0000
      9 C7          0.1149    0.3087    0.0000 CT        1 <0>         0.0000
     10 C8         -0.2751   -0.4183    0.0000 CT        1 <0>         0.0000
     11 C9          0.1595   -1.1196    0.0000 CT        1 <0>         0.0000
     12 C10        -0.3731   -1.7496    0.0000 CT        1 <0>         0.0000
     13 C11        -1.1369   -1.4377    0.0000 CT        1 <0>         0.0000
     14 C12        -1.0763   -0.6150    0.0000 CT        1 <0>         0.0000
     15 C13        -0.3197    1.0099    0.0000 CA        1 <0>         0.0000
     16 C14         0.0703    1.7369    0.0000 CA        1 <0>         0.0000
     17 C15        -0.3643    2.4382    0.0000 CA        1 <0>         0.0000
     18 C16        -1.1889    2.4124    0.0000 CA        1 <0>         0.0000
     19 O3         -1.6235    3.1137    0.0000 OH        1 <0>         0.0000
     20 C17        -1.5789    1.6854    0.0000 CA        1 <0>         0.0000
     21 C18        -1.1443    0.9842    0.0000 CA        1 <0>         0.0000
     22 H1          0.3909    0.8233    0.0000 H1        1 <0>         0.0000
     23 H2         -0.6329    0.0431    0.0000 HC        1 <0>         0.0000
     24 H3          0.4136   -1.6453    0.0000 HC        1 <0>         0.0000
     25 H4          1.0287   -2.5220    0.0000 HO        1 <0>         0.0000
     26 H5          2.2433   -1.7693    0.0000 HA        1 <0>         0.0000
     27 H6          2.6333   -1.0423    0.0000 HA        1 <0>         0.0000
     28 H7          2.1987   -0.3410    0.0000 HA        1 <0>         0.0000
     29 H8         -0.3731   -1.7496    0.0000 HC        1 <0>         0.0000
     30 H9         -0.3731   -1.7496    0.0000 HC        1 <0>         0.0000
     31 H10        -1.1369   -1.4377    0.0000 HC        1 <0>         0.0000
     32 H11        -1.1369   -1.4377    0.0000 HC        1 <0>         0.0000
     33 H12        -1.0763   -0.6150    0.0000 HC        1 <0>         0.0000
     34 H13        -1.0763   -0.6150    0.0000 HC        1 <0>         0.0000
     35 H14         0.0703    1.7369    0.0000 HA        1 <0>         0.0000
     36 H15        -0.3643    2.4382    0.0000 HA        1 <0>         0.0000
     37 H16        -1.6235    3.1137    0.0000 HO        1 <0>         0.0000
     38 H17        -1.5789    1.6854    0.0000 HA        1 <0>         0.0000
     39 H18        -1.1443    0.9842    0.0000 HA        1 <0>         0.0000
@<TRIPOS>BOND
     1    1   11 1
     2    1    2 ar
     3    1    7 ar
     4    2    3 1
     5    2    4 ar
     6    4    5 ar
     7    5    6 ar
     8    6    7 ar
     9    7    8 1
    10    8    9 1
    11    9   10 1
    12    9   15 1
    13    9   22 1
    14   10   14 1
    15   10   11 1
    16   10   23 1
    17   11   12 1
    18   11   24 1
    19   12   13 1
    20   13   14 1
    21   15   21 ar
    22   15   16 ar
    23   16   17 ar
    24   17   18 ar
    25   18   19 1
    26   18   20 ar
    27   20   21 ar
    28    3   25 1
    29    4   26 1
    30    5   27 1
    31    6   28 1
    32   12   29 1
    33   12   30 1
    34   13   31 1
    35   13   32 1
    36   14   33 1
    37   14   34 1
    38   16   35 1
    39   17   36 1
    40   19   37 1
    41   20   38 1
    42   21   39 1
@<TRIPOS>MOLECULE
XE4
   63    65     0     0     0
SMALL
NO_CHARGES

@<TRIPOS>ATOM
      1 C1          2.1226   -3.1473    0.0000 CT        1 <0>         0.0000
      2 C2          2.1226   -3.9723    0.0000 CT        1 <0>         0.0000
      3 C3          1.4081   -4.3848    0.0000 CT        1 <0>         0.0000
      4 C4          0.6937   -3.9723    0.0000 CT        1 <0>         0.0000
      5 C5          0.6937   -3.1473    0.0000 CM        1 <0>         0.0000
      6 C6          1.4081   -2.7348    0.0000 CM        1 <0>         0.0000
      7 C7          1.4081   -1.9098    0.0000 CM        1 <0>         0.0000
      8 C8          0.6937   -1.4973    0.0000 CM        1 <0>         0.0000
      9 C9          0.6937   -0.6723    0.0000 CM        1 <0>         0.0000
     10 C10        -0.0208   -2.7348    0.0000 CM        1 <0>         0.0000
     11 O1          2.8371   -4.3848    0.0000 OH        1 <0>         0.0000
     12 O2         -0.0208   -4.3848    0.0000 OH        1 <0>         0.0000
     13 C11        -0.0208   -0.2598    0.0000 CT        1 <0>         0.0000
     14 C12        -0.0208    0.5652    0.0000 CT        1 <0>         0.0000
     15 C13         0.6937    0.9777    0.0000 CT        1 <0>         0.0000
     16 C14         1.4081    0.5652    0.0000 CT        1 <0>         0.0000
     17 C15         1.4081   -0.2598    0.0000 CT        1 <0>         0.0000
     18 C16        -0.8054   -0.5147    0.0000 CT        1 <0>         0.0000
     19 C17        -1.2904    0.1527    0.0000 CT        1 <0>         0.0000
     20 C18        -0.8054    0.8202    0.0000 CT        1 <0>         0.0000
     21 C19        -1.0604    1.6048    0.0000 C2        1 <0>         0.0000
     22 C20        -1.3153    2.3894    0.0000 C2        1 <0>         0.0000
     23 C21        -1.5702    3.1740    0.0000 C2        1 <0>         0.0000
     24 C22        -1.8252    3.9587    0.0000 C2        1 <0>         0.0000
     25 C23        -2.0801    4.7433    0.0000 CT        1 <0>         0.0000
     26 C24        -2.3351    5.5279    0.0000 CT        1 <0>         0.0000
     27 O3         -1.2955    4.9982    0.0000 OH        1 <0>         0.0000
     28 C25        -2.8647    4.4883    0.0000 CT        1 <0>         0.0000
     29 C26        -0.1070    1.3857    0.0000 CT        1 <0>         0.0000
     30 H1          2.6283   -3.6803    0.0000 H1        1 <0>         0.0000
     31 H2          0.6937   -4.5562    0.0000 H1        1 <0>         0.0000
     32 H3         -0.0818   -0.8405    0.0000 HC        1 <0>         0.0000
     33 H4         -0.3925    1.2331    0.0000 HC        1 <0>         0.0000
     34 H5          2.1226   -3.1473    0.0000 HC        1 <0>         0.0000
     35 H6          2.1226   -3.1473    0.0000 HC        1 <0>         0.0000
     36 H7          1.4081   -4.3848    0.0000 HC        1 <0>         0.0000
     37 H8          1.4081   -4.3848    0.0000 HC        1 <0>         0.0000
     38 H9          1.4081   -1.9098    0.0000 HA        1 <0>         0.0000
     39 H10         0.6937   -1.4973    0.0000 HA        1 <0>         0.0000
     40 H11        -0.0208   -2.7348    0.0000 HA        1 <0>         0.0000
     41 H12        -0.0208   -2.7348    0.0000 HA        1 <0>         0.0000
     42 H13         2.8371   -4.3848    0.0000 HO        1 <0>         0.0000
     43 H14        -0.0208   -4.3848    0.0000 HO        1 <0>         0.0000
     44 H15         0.6937    0.9777    0.0000 HC        1 <0>         0.0000
     45 H16         0.6937    0.9777    0.0000 HC        1 <0>         0.0000
     46 H17         1.4081    0.5652    0.0000 HC        1 <0>         0.0000
     47 H18         1.4081    0.5652    0.0000 HC        1 <0>         0.0000
     48 H19         1.4081   -0.2598    0.0000 HC        1 <0>         0.0000
     49 H20         1.4081   -0.2598    0.0000 HC        1 <0>         0.0000
     50 H21        -0.8054   -0.5147    0.0000 HC        1 <0>         0.0000
     51 H22        -0.8054   -0.5147    0.0000 HC        1 <0>         0.0000
     52 H23        -1.2904    0.1527    0.0000 HC        1 <0>         0.0000
     53 H24        -1.2904    0.1527    0.0000 HC        1 <0>         0.0000
     54 H25        -2.3351    5.5279    0.0000 HC        1 <0>         0.0000
     55 H26        -2.3351    5.5279    0.0000 HC        1 <0>         0.0000
     56 H27        -2.3351    5.5279    0.0000 HC        1 <0>         0.0000
     57 H28        -1.2955    4.9982    0.0000 HO        1 <0>         0.0000
     58 H29        -2.8647    4.4883    0.0000 HC        1 <0>         0.0000
     59 H30        -2.8647    4.4883    0.0000 HC        1 <0>         0.0000
     60 H31        -2.8647    4.4883    0.0000 HC        1 <0>         0.0000
     61 H32        -0.1070    1.3857    0.0000 HC        1 <0>         0.0000
     62 H33        -0.1070    1.3857    0.0000 HC        1 <0>         0.0000
     63 H34        -0.1070    1.3857    0.0000 HC        1 <0>         0.0000
@<TRIPOS>BOND
     1    1    2 1
     2    1    6 1
     3    2    3 1
     4    2   11 1
     5    2   30 1
     6    3    4 1
     7    4    5 1
     8    4   12 1
     9    4   31 1
    10    5    6 1
    11    5   10 2
    12    6    7 2
    13    7    8 1
    14    8    9 2
    15    9   13 1
    16    9   17 1
    17   13   14 1
    18   13   18 1
    19   13   32 1
    20   14   15 1
    21   14   20 1
    22   14   29 1
    23   15   16 1
    24   16   17 1
    25   18   19 1
    26   19   20 1
    27   20   21 1
    28   20   33 1
    29   21   22 3
    30   22   23 1
    31   23   24 3
    32   24   25 1
    33   25   26 1
    34   25   27 1
    35   25   28 1
    36    1   34 1
    37    1   35 1
    38    3   36 1
    39    3   37 1
    40    7   38 1
    41    8   39 1
    42   10   40 1
    43   10   41 1
    44   11   42 1
    45   12   43 1
    46   15   44 1
    47   15   45 1
    48   16   46 1
    49   16   47 1
    50   17   48 1
    51   17   49 1
    52   18   50 1
    53   18   51 1
    54   19   52 1
    55   19   53 1
    56   26   54 1
    57   26   55 1
    58   26   56 1
    59   27   57 1
    60   28   58 1
    61   28   59 1
    62   28   60 1
    63   29   61 1
    64   29   62 1
    65   29   63 1
@<TRIPOS>MOLECULE
ZZ1
   20    21     0     0     0
SMALL
NO_CHARGES

@<TRIPOS>ATOM
      1 O1         -2.2519    1.4353    0.0000 O         1 <0>         0.0000
      2 C1         -1.5374    1.0228    0.0000 C         1 <0>         0.0000
      3 O2         -0.8230    1.4353    0.0000 OS        1 <0>         0.0000
      4 C2         -0.1085    1.0228    0.0000 CB        1 <0>         0.0000
      5 C3          0.6060    1.4353    0.0000 CA        1 <0>         0.0000
      6 C4          1.3205    1.0228    0.0000 CA        1 <0>         0.0000
      7 C5          1.3205    0.1978    0.0000 CA        1 <0>         0.0000
      8 C6          0.6060   -0.2147    0.0000 CA        1 <0>         0.0000
      9 C7         -0.1085    0.1978    0.0000 CB        1 <0>         0.0000
     10 C8         -0.8230   -0.2147    0.0000 CA        1 <0>         0.0000
     11 C9         -0.8230   -1.0397    0.0000 CT        1 <0>         0.0000
     12 C10        -1.5374    0.1978    0.0000 CA        1 <0>         0.0000
     13 H1          0.6060    1.4353    0.0000 HA        1 <0>         0.0000
     14 H2          1.3205    1.0228    0.0000 HA        1 <0>         0.0000
     15 H3          1.3205    0.1978    0.0000 HA        1 <0>         0.0000
     16 H4          0.6060   -0.2147    0.0000 HA        1 <0>         0.0000
     17 H5         -0.8230   -1.0397    0.0000 HC        1 <0>         0.0000
     18 H6         -0.8230   -1.0397    0.0000 HC        1 <0>         0.0000
     19 H7         -0.8230   -1.0397    0.0000 HC        1 <0>         0.0000
     20 H8         -1.5374    0.1978    0.0000 HA        1 <0>         0.0000
@<TRIPOS>BOND
     1    1    2 2
     2    2    3 1
     3    2   12 1
     4    3    4 1
     5    4    5 ar
     6    4    9 ar
     7    5    6 ar
     8    6    7 ar
     9    7    8 ar
    10    8    9 ar
    11    9   10 1
    12   10   11 1
    13   10   12 2
    14    5   13 1
    15    6   14 1
    16    7   15 1
    17    8   16 1
    18   11   17 1
    19   11   18 1
    20   11   19 1
    21   12   20 1
@<TRIPOS>MOLECULE
*****
   46    49     0     0     0
SMALL
NO_CHARGES

@<TRIPOS>ATOM
      1 C1          2.5006   -3.0937    0.0000 CT        1 <0>         0.0000
      2 C2          2.5006   -2.2687    0.0000 CT        1 <0>         0.0000
      3 C3          2.5006    2.6812    0.0000 CA        1 <0>         0.0000
      4 C4         -2.5006   -1.0312    0.0000 CA        1 <0>         0.0000
      5 C5          1.7861    3.0937    0.0000 CA        1 <0>         0.0000
      6 C6         -2.5006   -1.8562    0.0000 CA        1 <0>         0.0000
      7 C7          2.5006    1.8562    0.0000 CA        1 <0>         0.0000
      8 C8         -1.7861   -0.6187    0.0000 CA        1 <0>         0.0000
      9 C9          1.0717    2.6812    0.0000 CA        1 <0>         0.0000
     10 C10        -1.7861   -2.2687    0.0000 CA        1 <0>         0.0000
     11 C11         1.7861    1.4437    0.0000 CB        1 <0>         0.0000
     12 C12        -1.0717   -1.0312    0.0000 CB        1 <0>         0.0000
     13 C13         1.0717    1.8562    0.0000 CB        1 <0>         0.0000
     14 C14        -1.0717   -1.8562    0.0000 CB        1 <0>         0.0000
     15 C15         1.0717   -0.6187    0.0000 CT        1 <0>         0.0000
     16 C16         1.0717    0.2062    0.0000 CA        1 <0>         0.0000
     17 C17         0.3572   -1.0312    0.0000 CA        1 <0>         0.0000
     18 C18         1.7861    0.6187    0.0000 CA        1 <0>         0.0000
     19 C19        -0.3572   -0.6187    0.0000 CA        1 <0>         0.0000
     20 C20         1.7861   -1.0312    0.0000 C         1 <0>         0.0000
     21 C21         0.3572    0.6187    0.0000 C         1 <0>         0.0000
     22 C22         0.3572   -1.8562    0.0000 C         1 <0>         0.0000
     23 O1          2.5006    0.2062    0.0000 OH        1 <0>         0.0000
     24 O2         -0.3572    0.2062    0.0000 OH        1 <0>         0.0000
     25 O3          2.5006   -0.6187    0.0000 O         1 <0>         0.0000
     26 O4         -0.4632    0.7049    0.0000 O         1 <0>         0.0000
     27 O5          1.0717   -2.2687    0.0000 O         1 <0>         0.0000
     28 O6          1.7861   -1.8562    0.0000 OS        1 <0>         0.0000
     29 O7          0.3572    1.4437    0.0000 OS        1 <0>         0.0000
     30 O8         -0.3572   -2.2687    0.0000 OS        1 <0>         0.0000
     31 H1          2.5006   -3.0937    0.0000 HC        1 <0>         0.0000
     32 H2          2.5006   -3.0937    0.0000 HC        1 <0>         0.0000
     33 H3          2.5006   -3.0937    0.0000 HC        1 <0>         0.0000
     34 H4          2.5006   -2.2687    0.0000 H1        1 <0>         0.0000
     35 H5          2.5006   -2.2687    0.0000 H1        1 <0>         0.0000
     36 H6          2.5006    2.6812    0.0000 HA        1 <0>         0.0000
     37 H7         -2.5006   -1.0312    0.0000 HA        1 <0>         0.0000
     38 H8          1.7861    3.0937    0.0000 HA        1 <0>         0.0000
     39 H9         -2.5006   -1.8562    0.0000 HA        1 <0>         0.0000
     40 H10         2.5006    1.8562    0.0000 HA        1 <0>         0.0000
     41 H11        -1.7861   -0.6187    0.0000 HA        1 <0>         0.0000
     42 H12         1.0717    2.6812    0.0000 HA        1 <0>         0.0000
     43 H13        -1.7861   -2.2687    0.0000 HA        1 <0>         0.0000
     44 H14         1.0717   -0.6187    0.0000 HC        1 <0>         0.0000
     45 H15         2.5006    0.2062    0.0000 HO        1 <0>         0.0000
     46 H16        -0.3572    0.2062    0.0000 HO        1 <0>         0.0000
@<TRIPOS>BOND
     1    1    2 1
     2    3    5 ar
     3    4    6 ar
     4    3    7 ar
     5    4    8 ar
     6    5    9 ar
     7    6   10 ar
     8    7   11 ar
     9    8   12 ar
    10    9   13 ar
    11   11   13 ar
    12   10   14 ar
    13   12   14 ar
    14   15   16 1
    15   15   17 1
    16   11   18 1
    17   16   18 2
    18   12   19 1
    19   17   19 2
    20   15   20 1
    21   16   21 1
    22   17   22 1
    23   18   23 1
    24   19   24 1
    25   20   25 2
    26   21   26 2
    27   22   27 2
    28    2   28 1
    29   20   28 1
    30   13   29 1
    31   21   29 1
    32   14   30 1
    33   22   30 1
    34    1   31 1
    35    1   32 1
    36    1   33 1
    37    2   34 1
    38    2   35 1
    39    3   36 1
    40    4   37 1
    41    5   38 1
    42    6   39 1
    43    7   40 1
    44    8   41 1
    45    9   42 1
    46   10   43 1
    47   15   44 1
    48   23   45 1
    49   24   46 1
@<TRIPOS>MOLECULE
9677
   75    78     0     0     0
SMALL
NO_CHARGES

@<TRIPOS>ATOM
      1 O1          7.1363   -0.5900    0.0000 OS        1 <0>         0.0000
      2 O2          1.6500   -4.1438    0.0000 O         1 <0>         0.0000
      3 O3          8.4945   -1.0339    0.0000 O         1 <0>         0.0000
      4 C1          6.0994   -2.4506    0.0000 CT        1 <0>         0.0000
      5 C2          6.0994   -1.6256    0.0000 CT        1 <0>         0.0000
      6 C3          5.3849   -2.8631    0.0000 CT        1 <0>         0.0000
      7 C4          4.6704   -2.4506    0.0000 CT        1 <0>         0.0000
      8 C5          5.3849   -1.2131    0.0000 CT        1 <0>         0.0000
      9 C6          6.8800   -1.3742    0.0000 CT        1 <0>         0.0000
     10 C7          6.8800   -2.7020    0.0000 CT        1 <0>         0.0000
     11 C8          4.6704   -1.6256    0.0000 CT        1 <0>         0.0000
     12 C9          3.9196   -2.8687    0.0000 CT        1 <0>         0.0000
     13 C10         7.3615   -2.0381    0.0000 CT        1 <0>         0.0000
     14 C11         5.3981   -3.7224    0.0000 CT        1 <0>         0.0000
     15 C12         6.0994   -0.8006    0.0000 CT        1 <0>         0.0000
     16 C13         4.6573   -4.1577    0.0000 CT        1 <0>         0.0000
     17 C14         3.9130   -3.7280    0.0000 CM        1 <0>         0.0000
     18 C15         3.1550   -2.4034    0.0000 CT        1 <0>         0.0000
     19 C16         2.3730   -2.8389    0.0000 CT        1 <0>         0.0000
     20 C17         3.1413   -4.1816    0.0000 CM        1 <0>         0.0000
     21 C18         2.3661   -3.7341    0.0000 C         1 <0>         0.0000
     22 C19         7.9436   -0.4198    0.0000 C         1 <0>         0.0000
     23 C20         8.1998    0.3643    0.0000 CT        1 <0>         0.0000
     24 C21         9.0071    0.5344    0.0000 CT        1 <0>         0.0000
     25 C22         9.2634    1.3186    0.0000 CT        1 <0>         0.0000
     26 C23        10.0707    1.4888    0.0000 CT        1 <0>         0.0000
     27 C24        10.3270    2.2730    0.0000 CT        1 <0>         0.0000
     28 C25        11.1343    2.4431    0.0000 CT        1 <0>         0.0000
     29 C26        11.3906    3.2273    0.0000 CT        1 <0>         0.0000
     30 C27        12.1978    3.3974    0.0000 CT        1 <0>         0.0000
     31 C28        12.4542    4.1816    0.0000 CT        1 <0>         0.0000
     32 H1          6.0994   -2.4506    0.0000 HC        1 <0>         0.0000
     33 H2          5.3849   -2.8631    0.0000 HC        1 <0>         0.0000
     34 H3          4.6704   -2.4506    0.0000 HC        1 <0>         0.0000
     35 H4          5.3849   -1.2131    0.0000 HC        1 <0>         0.0000
     36 H5          5.3849   -1.2131    0.0000 HC        1 <0>         0.0000
     37 H6          6.8800   -1.3742    0.0000 H1        1 <0>         0.0000
     38 H7          6.8800   -2.7020    0.0000 HC        1 <0>         0.0000
     39 H8          6.8800   -2.7020    0.0000 HC        1 <0>         0.0000
     40 H9          4.6704   -1.6256    0.0000 HC        1 <0>         0.0000
     41 H10         4.6704   -1.6256    0.0000 HC        1 <0>         0.0000
     42 H11         3.9196   -2.8687    0.0000 HC        1 <0>         0.0000
     43 H12         7.3615   -2.0381    0.0000 HC        1 <0>         0.0000
     44 H13         7.3615   -2.0381    0.0000 HC        1 <0>         0.0000
     45 H14         5.3981   -3.7224    0.0000 HC        1 <0>         0.0000
     46 H15         5.3981   -3.7224    0.0000 HC        1 <0>         0.0000
     47 H16         6.0994   -0.8006    0.0000 HC        1 <0>         0.0000
     48 H17         6.0994   -0.8006    0.0000 HC        1 <0>         0.0000
     49 H18         6.0994   -0.8006    0.0000 HC        1 <0>         0.0000
     50 H19         4.6573   -4.1577    0.0000 HC        1 <0>         0.0000
     51 H20         4.6573   -4.1577    0.0000 HC        1 <0>         0.0000
     52 H21         3.1550   -2.4034    0.0000 HC        1 <0>         0.0000
     53 H22         3.1550   -2.4034    0.0000 HC        1 <0>         0.0000
     54 H23         2.3730   -2.8389    0.0000 HC        1 <0>         0.0000
     55 H24         2.3730   -2.8389    0.0000 HC        1 <0>         0.0000
     56 H25         3.1413   -4.1816    0.0000 HA        1 <0>         0.0000
     57 H26         8.1998    0.3643    0.0000 HC        1 <0>         0.0000
     58 H27         8.1998    0.3643    0.0000 HC        1 <0>         0.0000
     59 H28         9.0071    0.5344    0.0000 HC        1 <0>         0.0000
     60 H29         9.0071    0.5344    0.0000 HC        1 <0>         0.0000
     61 H30         9.2634    1.3186    0.0000 HC        1 <0>         0.0000
     62 H31         9.2634    1.3186    0.0000 HC        1 <0>         0.0000
     63 H32        10.0707    1.4888    0.0000 HC        1 <0>         0.0000
     64 H33        10.0707    1.4888    0.0000 HC        1 <0>         0.0000
     65 H34        10.3270    2.2730    0.0000 HC        1 <0>         0.0000
     66 H35        10.3270    2.2730    0.0000 HC        1 <0>         0.0000
     67 H36        11.1343    2.4431    0.0000 HC        1 <0>         0.0000
     68 H37        11.1343    2.4431    0.0000 HC        1 <0>         0.0000
     69 H38        11.3906    3.2273    0.0000 HC        1 <0>         0.0000
     70 H39        11.3906    3.2273    0.0000 HC        1 <0>         0.0000
     71 H40        12.1978    3.3974    0.0000 HC        1 <0>         0.0000
     72 H41        12.1978    3.3974    0.0000 HC        1 <0>         0.0000
     73 H42        12.4542    4.1816    0.0000 HC        1 <0>         0.0000
     74 H43        12.4542    4.1816    0.0000 HC        1 <0>         0.0000
     75 H44        12.4542    4.1816    0.0000 HC        1 <0>         0.0000
@<TRIPOS>BOND
     1    1    9 1
     2    1   22 1
     3    2   21 2
     4    3   22 2
     5    4    5 1
     6    4    6 1
     7    4   10 1
     8    5    8 1
     9    5    9 1
    10    5   15 1
    11    6    7 1
    12    6   14 1
    13    7   11 1
    14    7   12 1
    15    8   11 1
    16    9   13 1
    17   10   13 1
    18   12   17 1
    19   12   18 1
    20   14   16 1
    21   16   17 1
    22   17   20 2
    23   18   19 1
    24   19   21 1
    25   20   21 1
    26   22   23 1
    27   23   24 1
    28   24   25 1
    29   25   26 1
    30   26   27 1
    31   27   28 1
    32   28   29 1
    33   29   30 1
    34   30   31 1
    35    4   32 1
    36    6   33 1
    37    7   34 1
    38    8   35 1
    39    8   36 1
    40    9   37 1
    41   10   38 1
    42   10   39 1
    43   11   40 1
    44   11   41 1
    45   12   42 1
    46   13   43 1
    47   13   44 1
    48   14   45 1
    49   14   46 1
    50   15   47 1
    51   15   48 1
    52   15   49 1
    53   16   50 1
    54   16   51 1
    55   18   52 1
    56   18   53 1
    57   19   54 1
    58   19   55 1
    59   20   56 1
    60   23   57 1
    61   23   58 1
    62   24   59 1
    63   24   60 1
    64   25   61 1
    65   25   62 1
    66   26   63 1
    67   26   64 1
    68   27   65 1
    69   27   66 1
    70   28   67 1
    71   28   68 1
    72   29   69 1
    73   29   70 1
    74   30   71 1
    75   30   72 1
    76   31   73 1
    77   31   74 1
    78   31   75 1
@<TRIPOS>MOLECULE
*****
   18    18     0     0     0
SMALL
NO_CHARGES

@<TRIPOS>ATOM
      1 O1         -1.3848    0.8786    0.0000 OS        1 <0>         0.0000
      2 C1         -2.0522    0.3936    0.0000 CT        1 <0>         0.0000
      3 C2         -1.7973   -0.3909    0.0000 C         1 <0>         0.0000
      4 C3         -0.9723   -0.3909    0.0000 C         1 <0>         0.0000
      5 C4         -0.7174    0.3936    0.0000 C         1 <0>         0.0000
      6 C5         -2.0522    1.2186    0.0000 CT        1 <0>         0.0000
      7 O2         -1.2272    1.2186    0.0000 OH        1 <0>         0.0000
      8 C6         -2.0522    2.0436    0.0000 CT        1 <0>         0.0000
      9 O3         -0.5598   -1.1054    0.0000 O         1 <0>         0.0000
     10 O4          0.1076    0.3936    0.0000 O         1 <0>         0.0000
     11 O5         -2.2098   -1.1054    0.0000 O         1 <0>         0.0000
     12 O6         -1.2272    2.0436    0.0000 OH        1 <0>         0.0000
     13 H1         -2.0522    2.8686    0.0000 H1        1 <0>         0.0000
     14 H2         -2.8772    2.0436    0.0000 H1        1 <0>         0.0000
     15 H3         -2.0522    0.3936    0.0000 H1        1 <0>         0.0000
     16 H4         -2.0522    1.2186    0.0000 H1        1 <0>         0.0000
     17 H5         -1.2272    1.2186    0.0000 HO        1 <0>         0.0000
     18 H6         -1.2272    2.0436    0.0000 HO        1 <0>         0.0000
@<TRIPOS>BOND
     1    1    2 1
     2    1    5 1
     3    2    3 1
     4    3    4 1
     5    4    5 1
     6    2    6 1
     7    6    7 1
     8    6    8 1
     9    4    9 2
    10    5   10 2
    11    3   11 2
    12    8   12 1
    13    8   13 1
    14    8   14 1
    15    2   15 1
    16    6   16 1
    17    7   17 1
    18   12   18 1
@<TRIPOS>MOLECULE
*****
   23    23     0     0     0
SMALL
NO_CHARGES

@<TRIPOS>ATOM
      1 O1         -0.7661    3.3000    0.0000 OS        1 <0>         0.0000
      2 C1         -1.4805    2.8875    0.0000 CT        1 <0>         0.0000
      3 C2         -1.4805    2.0625    0.0000 CT        1 <0>         0.0000
      4 C3         -0.7661    1.6500    0.0000 CT        1 <0>         0.0000
      5 C4         -0.0516    2.0625    0.0000 CT        1 <0>         0.0000
      6 C5         -0.0516    2.8875    0.0000 CT        1 <0>         0.0000
      7 C6         -2.1950    3.3000    0.0000 CT        1 <0>         0.0000
      8 O2         -2.9095    2.8875    0.0000 OH        1 <0>         0.0000
      9 O3         -2.1950    1.6500    0.0000 OH        1 <0>         0.0000
     10 O4         -0.7661    0.8250    0.0000 OH        1 <0>         0.0000
     11 O5          0.6629    3.3000    0.0000 OH        1 <0>         0.0000
     12 H1         -1.4805    2.8875    0.0000 H1        1 <0>         0.0000
     13 H2         -1.4805    2.0625    0.0000 H1        1 <0>         0.0000
     14 H3         -0.7661    1.6500    0.0000 H1        1 <0>         0.0000
     15 H4         -0.0516    2.0625    0.0000 HC        1 <0>         0.0000
     16 H5         -0.0516    2.0625    0.0000 HC        1 <0>         0.0000
     17 H6         -0.0516    2.8875    0.0000 H2        1 <0>         0.0000
     18 H7         -2.1950    3.3000    0.0000 H1        1 <0>         0.0000
     19 H8         -2.1950    3.3000    0.0000 H1        1 <0>         0.0000
     20 H9         -2.9095    2.8875    0.0000 HO        1 <0>         0.0000
     21 H10        -2.1950    1.6500    0.0000 HO        1 <0>         0.0000
     22 H11        -0.7661    0.8250    0.0000 HO        1 <0>         0.0000
     23 H12         0.6629    3.3000    0.0000 HO        1 <0>         0.0000
@<TRIPOS>BOND
     1    1    2 1
     2    1    6 1
     3    2    3 1
     4    3    4 1
     5    4    5 1
     6    5    6 1
     7    2    7 1
     8    7    8 1
     9    3    9 1
    10    4   10 1
    11    6   11 1
    12    2   12 1
    13    3   13 1
    14    4   14 1
    15    5   15 1
    16    5   16 1
    17    6   17 1
    18    7   18 1
    19    7   19 1
    20    8   20 1
    21    9   21 1
    22   10   22 1
    23   11   23 1
@<TRIPOS>MOLECULE
Ellagic acid
   28    31     0     0     0
SMALL
NO_CHARGES

@<TRIPOS>ATOM
      1 O1          6.2684    0.4125    0.0000 OH        1 <0>         0.0000
      2 C1          5.4434    0.4125    0.0000 CA        1 <0>         0.0000
      3 C2          5.0309    1.1270    0.0000 CA        1 <0>         0.0000
      4 O2          5.4434    1.8414    0.0000 OH        1 <0>         0.0000
      5 C3          4.2059    1.1270    0.0000 CB        1 <0>         0.0000
      6 C4          3.7934    0.4125    0.0000 CB        1 <0>         0.0000
      7 C5          4.2059   -0.3020    0.0000 CB        1 <0>         0.0000
      8 C6          5.0309   -0.3020    0.0000 CA        1 <0>         0.0000
      9 C7          3.7934   -1.0164    0.0000 C         1 <0>         0.0000
     10 O3          4.2059   -1.7309    0.0000 O         1 <0>         0.0000
     11 O4          2.9684   -1.0164    0.0000 OS        1 <0>         0.0000
     12 C8          2.5559   -0.3020    0.0000 CB        1 <0>         0.0000
     13 C9          2.9684    0.4125    0.0000 CB        1 <0>         0.0000
     14 C10         2.5559    1.1270    0.0000 CB        1 <0>         0.0000
     15 C11         1.7309    1.1270    0.0000 CA        1 <0>         0.0000
     16 C12         1.3184    0.4125    0.0000 CA        1 <0>         0.0000
     17 O5          0.4934    0.4125    0.0000 OH        1 <0>         0.0000
     18 C13         1.7309   -0.3020    0.0000 CA        1 <0>         0.0000
     19 O6          1.3184   -1.0164    0.0000 OH        1 <0>         0.0000
     20 C14         2.9684    1.8414    0.0000 C         1 <0>         0.0000
     21 O7          2.5559    2.5559    0.0000 O         1 <0>         0.0000
     22 O8          3.7934    1.8414    0.0000 OS        1 <0>         0.0000
     23 H1          6.2684    0.4125    0.0000 HO        1 <0>         0.0000
     24 H2          5.4434    1.8414    0.0000 HO        1 <0>         0.0000
     25 H3          5.0309   -0.3020    0.0000 HA        1 <0>         0.0000
     26 H4          1.7309    1.1270    0.0000 HA        1 <0>         0.0000
     27 H5          0.4934    0.4125    0.0000 HO        1 <0>         0.0000
     28 H6          1.3184   -1.0164    0.0000 HO        1 <0>         0.0000
@<TRIPOS>BOND
     1    1    2 1
     2    2    3 ar
     3    3    4 1
     4    3    5 ar
     5    5    6 ar
     6    6    7 ar
     7    7    8 ar
     8    2    8 ar
     9    7    9 1
    10    9   10 2
    11    9   11 1
    12   11   12 1
    13   12   13 ar
    14    6   13 1
    15   13   14 ar
    16   14   15 ar
    17   15   16 ar
    18   16   17 1
    19   16   18 ar
    20   12   18 ar
    21   18   19 1
    22   14   20 1
    23   20   21 2
    24   20   22 1
    25    5   22 1
    26    1   23 1
    27    4   24 1
    28    8   25 1
    29   15   26 1
    30   17   27 1
    31   19   28 1
@<TRIPOS>MOLECULE
*****
   58    57     0     0     0
SMALL
NO_CHARGES

@<TRIPOS>ATOM
      1 C1          0.7145   -6.1875    0.0000 CT        1 <0>         0.0000
      2 C2         -1.4289    0.0000    0.0000 CT        1 <0>         0.0000
      3 C3          1.4289   -5.7750    0.0000 CT        1 <0>         0.0000
      4 C4         -0.7145    0.4125    0.0000 CT        1 <0>         0.0000
      5 C5          2.1434   -6.1875    0.0000 CM        1 <0>         0.0000
      6 C6          2.8579   -5.7750    0.0000 CM        1 <0>         0.0000
      7 C7          2.8579   -4.9500    0.0000 CT        1 <0>         0.0000
      8 C8          3.5724   -4.5375    0.0000 CM        1 <0>         0.0000
      9 C9          3.5724   -3.7125    0.0000 CM        1 <0>         0.0000
     10 C10         2.8579   -3.3000    0.0000 CT        1 <0>         0.0000
     11 C11         2.8579   -2.4750    0.0000 CM        1 <0>         0.0000
     12 C12         2.1434   -2.0625    0.0000 CM        1 <0>         0.0000
     13 C13         1.4289   -2.4750    0.0000 CT        1 <0>         0.0000
     14 C14         0.7145   -2.0625    0.0000 CM        1 <0>         0.0000
     15 C15         0.7145   -1.2375    0.0000 CM        1 <0>         0.0000
     16 C16         1.4289   -0.8250    0.0000 CT        1 <0>         0.0000
     17 C17         2.1434   -1.2375    0.0000 CM        1 <0>         0.0000
     18 C18         2.8579   -0.8250    0.0000 CM        1 <0>         0.0000
     19 C19         2.8579    0.0000    0.0000 CT        1 <0>         0.0000
     20 C20         2.1434    0.4125    0.0000 CT        1 <0>         0.0000
     21 C21         1.4289    0.0000    0.0000 CT        1 <0>         0.0000
     22 C22         0.7145    0.4125    0.0000 C         1 <0>         0.0000
     23 O1          0.7145    1.2375    0.0000 O         1 <0>         0.0000
     24 O2          0.0000    0.0000    0.0000 OS        1 <0>         0.0000
     25 H1          0.7145   -6.1875    0.0000 HC        1 <0>         0.0000
     26 H2          0.7145   -6.1875    0.0000 HC        1 <0>         0.0000
     27 H3          0.7145   -6.1875    0.0000 HC        1 <0>         0.0000
     28 H4         -1.4289    0.0000    0.0000 HC        1 <0>         0.0000
     29 H5         -1.4289    0.0000    0.0000 HC        1 <0>         0.0000
     30 H6         -1.4289    0.0000    0.0000 HC        1 <0>         0.0000
     31 H7          1.4289   -5.7750    0.0000 HC        1 <0>         0.0000
     32 H8          1.4289   -5.7750    0.0000 HC        1 <0>         0.0000
     33 H9         -0.7145    0.4125    0.0000 H1        1 <0>         0.0000
     34 H10        -0.7145    0.4125    0.0000 H1        1 <0>         0.0000
     35 H11         2.1434   -6.1875    0.0000 HA        1 <0>         0.0000
     36 H12         2.8579   -5.7750    0.0000 HA        1 <0>         0.0000
     37 H13         2.8579   -4.9500    0.0000 HC        1 <0>         0.0000
     38 H14         2.8579   -4.9500    0.0000 HC        1 <0>         0.0000
     39 H15         3.5724   -4.5375    0.0000 HA        1 <0>         0.0000
     40 H16         3.5724   -3.7125    0.0000 HA        1 <0>         0.0000
     41 H17         2.8579   -3.3000    0.0000 HC        1 <0>         0.0000
     42 H18         2.8579   -3.3000    0.0000 HC        1 <0>         0.0000
     43 H19         2.8579   -2.4750    0.0000 HA        1 <0>         0.0000
     44 H20         2.1434   -2.0625    0.0000 HA        1 <0>         0.0000
     45 H21         1.4289   -2.4750    0.0000 HC        1 <0>         0.0000
     46 H22         1.4289   -2.4750    0.0000 HC        1 <0>         0.0000
     47 H23         0.7145   -2.0625    0.0000 HA        1 <0>         0.0000
     48 H24         0.7145   -1.2375    0.0000 HA        1 <0>         0.0000
     49 H25         1.4289   -0.8250    0.0000 HC        1 <0>         0.0000
     50 H26         1.4289   -0.8250    0.0000 HC        1 <0>         0.0000
     51 H27         2.1434   -1.2375    0.0000 HA        1 <0>         0.0000
     52 H28         2.8579   -0.8250    0.0000 HA        1 <0>         0.0000
     53 H29         2.8579    0.0000    0.0000 HC        1 <0>         0.0000
     54 H30         2.8579    0.0000    0.0000 HC        1 <0>         0.0000
     55 H31         2.1434    0.4125    0.0000 HC        1 <0>         0.0000
     56 H32         2.1434    0.4125    0.0000 HC        1 <0>         0.0000
     57 H33         1.4289    0.0000    0.0000 HC        1 <0>         0.0000
     58 H34         1.4289    0.0000    0.0000 HC        1 <0>         0.0000
@<TRIPOS>BOND
     1    1    3 1
     2    2    4 1
     3    3    5 1
     4    5    6 2
     5    6    7 1
     6    7    8 1
     7    8    9 2
     8    9   10 1
     9   10   11 1
    10   11   12 2
    11   12   13 1
    12   13   14 1
    13   14   15 2
    14   15   16 1
    15   16   17 1
    16   17   18 2
    17   18   19 1
    18   19   20 1
    19   20   21 1
    20   21   22 1
    21   22   23 2
    22    4   24 1
    23   22   24 1
    24    1   25 1
    25    1   26 1
    26    1   27 1
    27    2   28 1
    28    2   29 1
    29    2   30 1
    30    3   31 1
    31    3   32 1
    32    4   33 1
    33    4   34 1
    34    5   35 1
    35    6   36 1
    36    7   37 1
    37    7   38 1
    38    8   39 1
    39    9   40 1
    40   10   41 1
    41   10   42 1
    42   11   43 1
    43   12   44 1
    44   13   45 1
    45   13   46 1
    46   14   47 1
    47   15   48 1
    48   16   49 1
    49   16   50 1
    50   17   51 1
    51   18   52 1
    52   19   53 1
    53   19   54 1
    54   20   55 1
    55   20   56 1
    56   21   57 1
    57   21   58 1
@<TRIPOS>MOLECULE
*****
   48    51     0     0     0
SMALL
NO_CHARGES

 
@<TRIPOS>ATOM
      1 C1         14.3963   -9.9000    0.0000 CT        1 <0>         0.0000
      2 C2         14.3963  -10.7250    0.0000 CT        1 <0>         0.0000
      3 C3         15.8252  -10.7250    0.0000 CT        1 <0>         0.0000
      4 C4         15.8252   -9.9000    0.0000 CT        1 <0>         0.0000
      5 C5         15.1107   -9.4875    0.0000 C         1 <0>         0.0000
      6 C6         13.6818   -9.4875    0.0000 CT        1 <0>         0.0000
      7 C7         12.9673   -9.9000    0.0000 CT        1 <0>         0.0000
      8 C8         12.9673  -10.7250    0.0000 CT        1 <0>         0.0000
      9 C9         13.6818  -11.1375    0.0000 CT        1 <0>         0.0000
     10 C10        12.2528  -11.1375    0.0000 CT        1 <0>         0.0000
     11 C11        12.2528  -11.9625    0.0000 CM        1 <0>         0.0000
     12 C12        12.9673  -12.3750    0.0000 CT        1 <0>         0.0000
     13 C13        13.6818  -11.9625    0.0000 CT        1 <0>         0.0000
     14 C14        11.5384  -10.7250    0.0000 CT        1 <0>         0.0000
     15 C15        10.8239  -11.1375    0.0000 CT        1 <0>         0.0000
     16 C16        10.8239  -11.9625    0.0000 C         1 <0>         0.0000
     17 C17        11.5384  -12.3750    0.0000 CM        1 <0>         0.0000
     18 O1         10.0972  -12.3822    0.0000 O         1 <0>         0.0000
     19 O2         15.1107   -8.6626    0.0000 O         1 <0>         0.0000
     20 O3         11.5384  -13.1999    0.0000 OH        1 <0>         0.0000
     21 C18        12.2528  -10.3125    0.0000 CT        1 <0>         0.0000
     22 H1         13.6818  -10.3125    0.0000 HC        1 <0>         0.0000
     23 C19        14.3963   -9.0750    0.0000 CT        1 <0>         0.0000
     24 H2         12.9673  -11.5500    0.0000 HC        1 <0>         0.0000
     25 H3         14.3963  -11.5500    0.0000 HC        1 <0>         0.0000
     26 H4         15.8252  -10.7250    0.0000 HC        1 <0>         0.0000
     27 H5         15.8252  -10.7250    0.0000 HC        1 <0>         0.0000
     28 H6         15.8252   -9.9000    0.0000 HC        1 <0>         0.0000
     29 H7         15.8252   -9.9000    0.0000 HC        1 <0>         0.0000
     30 H8         13.6818   -9.4875    0.0000 HC        1 <0>         0.0000
     31 H9         13.6818   -9.4875    0.0000 HC        1 <0>         0.0000
     32 H10        12.9673   -9.9000    0.0000 HC        1 <0>         0.0000
     33 H11        12.9673   -9.9000    0.0000 HC        1 <0>         0.0000
     34 H12        12.9673  -12.3750    0.0000 HC        1 <0>         0.0000
     35 H13        12.9673  -12.3750    0.0000 HC        1 <0>         0.0000
     36 H14        13.6818  -11.9625    0.0000 HC        1 <0>         0.0000
     37 H15        13.6818  -11.9625    0.0000 HC        1 <0>         0.0000
     38 H16        11.5384  -10.7250    0.0000 HC        1 <0>         0.0000
     39 H17        11.5384  -10.7250    0.0000 HC        1 <0>         0.0000
     40 H18        10.8239  -11.1375    0.0000 HC        1 <0>         0.0000
     41 H19        10.8239  -11.1375    0.0000 HC        1 <0>         0.0000
     42 H20        11.5384  -13.1999    0.0000 HO        1 <0>         0.0000
     43 H21        12.2528  -10.3125    0.0000 HC        1 <0>         0.0000
     44 H22        12.2528  -10.3125    0.0000 HC        1 <0>         0.0000
     45 H23        12.2528  -10.3125    0.0000 HC        1 <0>         0.0000
     46 H24        14.3963   -9.0750    0.0000 HC        1 <0>         0.0000
     47 H25        14.3963   -9.0750    0.0000 HC        1 <0>         0.0000
     48 H26        14.3963   -9.0750    0.0000 HC        1 <0>         0.0000
@<TRIPOS>BOND
     1    1    2 1
     2    2    3 1
     3    3    4 1
     4    4    5 1
     5    1    5 1
     6    1    6 1
     7    6    7 1
     8    7    8 1
     9    8    9 1
    10    2    9 1
    11    8   10 1
    12   10   11 1
    13   11   12 1
    14   12   13 1
    15    9   13 1
    16   10   14 1
    17   14   15 1
    18   15   16 1
    19   16   17 1
    20   11   17 2
    21   16   18 2
    22    5   19 2
    23   17   20 1
    24   10   21 1
    25    9   22 1
    26    1   23 1
    27    8   24 1
    28    2   25 1
    29    3   26 1
    30    3   27 1
    31    4   28 1
    32    4   29 1
    33    6   30 1
    34    6   31 1
    35    7   32 1
    36    7   33 1
    37   12   34 1
    38   12   35 1
    39   13   36 1
    40   13   37 1
    41   14   38 1
    42   14   39 1
    43   15   40 1
    44   15   41 1
    45   20   42 1
    46   21   43 1
    47   21   44 1
    48   21   45 1
    49   23   46 1
    50   23   47 1
    51   23   48 1
@<TRIPOS>MOLECULE
*****
   18    17     0     0     0
SMALL
NO_CHARGES

@<TRIPOS>ATOM
      1 C1          2.4750    1.4289    0.0000 CT        1 <0>         0.0000
      2 C2         -1.6500   -1.4289    0.0000 CT        1 <0>         0.0000
      3 C3          0.8250    0.0000    0.0000 CM        1 <0>         0.0000
      4 C4          0.0000    0.0000    0.0000 CM        1 <0>         0.0000
      5 C5          1.2375    0.7144    0.0000 C         1 <0>         0.0000
      6 C6         -0.4125   -0.7144    0.0000 C         1 <0>         0.0000
      7 O1          0.8250    1.4289    0.0000 O         1 <0>         0.0000
      8 O2          0.0000   -1.4289    0.0000 O         1 <0>         0.0000
      9 O3          2.0625    0.7144    0.0000 OS        1 <0>         0.0000
     10 O4         -1.2375   -0.7144    0.0000 OS        1 <0>         0.0000
     11 H1          1.2375   -0.7144    0.0000 HA        1 <0>         0.0000
     12 H2         -0.4125    0.7144    0.0000 HA        1 <0>         0.0000
     13 H3          2.4750    1.4289    0.0000 H1        1 <0>         0.0000
     14 H4          2.4750    1.4289    0.0000 H1        1 <0>         0.0000
     15 H5          2.4750    1.4289    0.0000 H1        1 <0>         0.0000
     16 H6         -1.6500   -1.4289    0.0000 H1        1 <0>         0.0000
     17 H7         -1.6500   -1.4289    0.0000 H1        1 <0>         0.0000
     18 H8         -1.6500   -1.4289    0.0000 H1        1 <0>         0.0000
@<TRIPOS>BOND
     1    3    4 2
     2    3    5 1
     3    4    6 1
     4    5    7 2
     5    6    8 2
     6    1    9 1
     7    5    9 1
     8    2   10 1
     9    6   10 1
    10    3   11 1
    11    4   12 1
    12    1   13 1
    13    1   14 1
    14    1   15 1
    15    2   16 1
    16    2   17 1
    17    2   18 1
@<TRIPOS>MOLECULE
*****
   77    79     0     0     0
SMALL
NO_CHARGES

 
@<TRIPOS>ATOM
      1 O1         13.2180  -12.2559    0.0000 OS        1 <0>         0.0000
      2 C1         13.9291  -11.8377    0.0000 CT        1 <0>         0.0000
      3 C2         14.6820  -12.2559    0.0000 CT        1 <0>         0.0000
      4 C3         15.3931  -11.8377    0.0000 CT        1 <0>         0.0000
      5 O2         16.1042  -12.2559    0.0000 OS        1 <0>         0.0000
      6 O3         14.6820  -13.0925    0.0000 OS        1 <0>         0.0000
      7 C4         16.8572  -11.8377    0.0000 C         1 <0>         0.0000
      8 C5         17.5682  -12.2559    0.0000 CT        1 <0>         0.0000
      9 O4         16.8572  -11.0011    0.0000 O         1 <0>         0.0000
     10 C6         18.2793  -11.8377    0.0000 CT        1 <0>         0.0000
     11 C7         18.9904  -12.2559    0.0000 CT        1 <0>         0.0000
     12 C8         19.7015  -11.8377    0.0000 CA        1 <0>         0.0000
     13 C9         20.4126  -12.2559    0.0000 CA        1 <0>         0.0000
     14 C10        21.1656  -11.8377    0.0000 CA        1 <0>         0.0000
     15 C11        21.1656  -10.9592    0.0000 CA        1 <0>         0.0000
     16 C12        20.4126  -10.5828    0.0000 CA        1 <0>         0.0000
     17 C13        19.7015  -11.0011    0.0000 CA        1 <0>         0.0000
     18 C14        12.4651  -11.8377    0.0000 C         1 <0>         0.0000
     19 O5         12.4651  -11.0011    0.0000 O         1 <0>         0.0000
     20 C15        11.7540  -12.2559    0.0000 CT        1 <0>         0.0000
     21 C16        11.0429  -11.8377    0.0000 CT        1 <0>         0.0000
     22 C17        10.3318  -12.2559    0.0000 CT        1 <0>         0.0000
     23 C18         9.6207  -11.8377    0.0000 CA        1 <0>         0.0000
     24 C19         9.6207  -11.0011    0.0000 CA        1 <0>         0.0000
     25 C20         8.9096  -10.5409    0.0000 CA        1 <0>         0.0000
     26 C21         8.1567  -11.0011    0.0000 CA        1 <0>         0.0000
     27 C22         8.1567  -11.8377    0.0000 CA        1 <0>         0.0000
     28 C23         8.9096  -12.2559    0.0000 CA        1 <0>         0.0000
     29 C24        15.3931  -13.5108    0.0000 C         1 <0>         0.0000
     30 C25        16.1461  -13.0925    0.0000 CT        1 <0>         0.0000
     31 O6         15.3931  -14.3474    0.0000 O         1 <0>         0.0000
     32 C26        16.8572  -13.5108    0.0000 CT        1 <0>         0.0000
     33 C27        17.5682  -13.0925    0.0000 CT        1 <0>         0.0000
     34 C28        18.2793  -13.5108    0.0000 CA        1 <0>         0.0000
     35 C29        18.2793  -14.3474    0.0000 CA        1 <0>         0.0000
     36 C30        18.9904  -14.7657    0.0000 CA        1 <0>         0.0000
     37 C31        19.7434  -14.3474    0.0000 CA        1 <0>         0.0000
     38 C32        19.7434  -13.5108    0.0000 CA        1 <0>         0.0000
     39 C33        18.9904  -13.0925    0.0000 CA        1 <0>         0.0000
     40 H1         13.9291  -11.8377    0.0000 H1        1 <0>         0.0000
     41 H2         13.9291  -11.8377    0.0000 H1        1 <0>         0.0000
     42 H3         14.6820  -12.2559    0.0000 H1        1 <0>         0.0000
     43 H4         15.3931  -11.8377    0.0000 H1        1 <0>         0.0000
     44 H5         15.3931  -11.8377    0.0000 H1        1 <0>         0.0000
     45 H6         17.5682  -12.2559    0.0000 HC        1 <0>         0.0000
     46 H7         17.5682  -12.2559    0.0000 HC        1 <0>         0.0000
     47 H8         18.2793  -11.8377    0.0000 HC        1 <0>         0.0000
     48 H9         18.2793  -11.8377    0.0000 HC        1 <0>         0.0000
     49 H10        18.9904  -12.2559    0.0000 HC        1 <0>         0.0000
     50 H11        18.9904  -12.2559    0.0000 HC        1 <0>         0.0000
     51 H12        20.4126  -12.2559    0.0000 HA        1 <0>         0.0000
     52 H13        21.1656  -11.8377    0.0000 HA        1 <0>         0.0000
     53 H14        21.1656  -10.9592    0.0000 HA        1 <0>         0.0000
     54 H15        20.4126  -10.5828    0.0000 HA        1 <0>         0.0000
     55 H16        19.7015  -11.0011    0.0000 HA        1 <0>         0.0000
     56 H17        11.7540  -12.2559    0.0000 HC        1 <0>         0.0000
     57 H18        11.7540  -12.2559    0.0000 HC        1 <0>         0.0000
     58 H19        11.0429  -11.8377    0.0000 HC        1 <0>         0.0000
     59 H20        11.0429  -11.8377    0.0000 HC        1 <0>         0.0000
     60 H21        10.3318  -12.2559    0.0000 HC        1 <0>         0.0000
     61 H22        10.3318  -12.2559    0.0000 HC        1 <0>         0.0000
     62 H23         9.6207  -11.0011    0.0000 HA        1 <0>         0.0000
     63 H24         8.9096  -10.5409    0.0000 HA        1 <0>         0.0000
     64 H25         8.1567  -11.0011    0.0000 HA        1 <0>         0.0000
     65 H26         8.1567  -11.8377    0.0000 HA        1 <0>         0.0000
     66 H27         8.9096  -12.2559    0.0000 HA        1 <0>         0.0000
     67 H28        16.1461  -13.0925    0.0000 HC        1 <0>         0.0000
     68 H29        16.1461  -13.0925    0.0000 HC        1 <0>         0.0000
     69 H30        16.8572  -13.5108    0.0000 HC        1 <0>         0.0000
     70 H31        16.8572  -13.5108    0.0000 HC        1 <0>         0.0000
     71 H32        17.5682  -13.0925    0.0000 HC        1 <0>         0.0000
     72 H33        17.5682  -13.0925    0.0000 HC        1 <0>         0.0000
     73 H34        18.2793  -14.3474    0.0000 HA        1 <0>         0.0000
     74 H35        18.9904  -14.7657    0.0000 HA        1 <0>         0.0000
     75 H36        19.7434  -14.3474    0.0000 HA        1 <0>         0.0000
     76 H37        19.7434  -13.5108    0.0000 HA        1 <0>         0.0000
     77 H38        18.9904  -13.0925    0.0000 HA        1 <0>         0.0000
@<TRIPOS>BOND
     1    1    2 1
     2    2    3 1
     3    3    4 1
     4    4    5 1
     5    3    6 1
     6    5    7 1
     7    7    8 1
     8    7    9 2
     9    8   10 1
    10   10   11 1
    11   11   12 1
    12   12   13 ar
    13   13   14 ar
    14   14   15 ar
    15   15   16 ar
    16   16   17 ar
    17   12   17 ar
    18    1   18 1
    19   18   19 2
    20   18   20 1
    21   20   21 1
    22   21   22 1
    23   22   23 1
    24   23   24 ar
    25   24   25 ar
    26   25   26 ar
    27   26   27 ar
    28   27   28 ar
    29   23   28 ar
    30    6   29 1
    31   29   30 1
    32   29   31 2
    33   30   32 1
    34   32   33 1
    35   33   34 1
    36   34   35 ar
    37   35   36 ar
    38   36   37 ar
    39   37   38 ar
    40   38   39 ar
    41   34   39 ar
    42    2   40 1
    43    2   41 1
    44    3   42 1
    45    4   43 1
    46    4   44 1
    47    8   45 1
    48    8   46 1
    49   10   47 1
    50   10   48 1
    51   11   49 1
    52   11   50 1
    53   13   51 1
    54   14   52 1
    55   15   53 1
    56   16   54 1
    57   17   55 1
    58   20   56 1
    59   20   57 1
    60   21   58 1
    61   21   59 1
    62   22   60 1
    63   22   61 1
    64   24   62 1
    65   25   63 1
    66   26   64 1
    67   27   65 1
    68   28   66 1
    69   30   67 1
    70   30   68 1
    71   32   69 1
    72   32   70 1
    73   33   71 1
    74   33   72 1
    75   35   73 1
    76   36   74 1
    77   37   75 1
    78   38   76 1
    79   39   77 1
@<TRIPOS>MOLECULE
*****
   56    59     0     0     0
SMALL
NO_CHARGES

@<TRIPOS>ATOM
      1 C1          4.5465    1.3336    0.0000 CT        1 <0>         0.0000
      2 C2          2.0306    1.7357    0.0000 CT        1 <0>         0.0000
      3 C3          4.5753   -0.8489    0.0000 CT        1 <0>         0.0000
      4 C4          3.7632   -0.7037    0.0000 CT        1 <0>         0.0000
      5 C5          2.0195   -0.2889    0.0000 CT        1 <0>         0.0000
      6 C6          1.3366    0.1740    0.0000 CT        1 <0>         0.0000
      7 C7          6.1708    1.0432    0.0000 CT        1 <0>         0.0000
      8 C8          3.7344    1.4788    0.0000 CT        1 <0>         0.0000
      9 C9          5.3587    1.1884    0.0000 CT        1 <0>         0.0000
     10 C10         2.9223    1.6240    0.0000 CT        1 <0>         0.0000
     11 C11         5.9193   -0.3634    0.0000 CT        1 <0>         0.0000
     12 C12         0.2423    1.5050    0.0000 CT        1 <0>         0.0000
     13 C13         5.1071   -0.2182    0.0000 CT        1 <0>         0.0000
     14 C14         6.4511    0.2672    0.0000 C         1 <0>         0.0000
     15 C15         3.4829    0.0722    0.0000 CT        1 <0>         0.0000
     16 C16         2.6708    0.2174    0.0000 CT        1 <0>         0.0000
     17 C17         4.0147    0.7029    0.0000 CT        1 <0>         0.0000
     18 C18         1.5659    0.9665    0.0000 CT        1 <0>         0.0000
     19 C19         1.0596    1.6178    0.0000 C         1 <0>         0.0000
     20 C20         4.8268    0.5577    0.0000 CT        1 <0>         0.0000
     21 C21         2.3905    0.9933    0.0000 CT        1 <0>         0.0000
     22 O1         -0.2639    2.1563    0.0000 OH        1 <0>         0.0000
     23 O2          7.2632    0.1220    0.0000 O         1 <0>         0.0000
     24 O3          1.3705    2.3820    0.0000 O         1 <0>         0.0000
     25 H1          5.3874   -0.9941    0.0000 HC        1 <0>         0.0000
     26 H2          3.1989   -0.7023    0.0000 HC        1 <0>         0.0000
     27 H3          2.5826   -0.6028    0.0000 HC        1 <0>         0.0000
     28 H4          4.2988    1.4774    0.0000 HC        1 <0>         0.0000
     29 H5          0.7557    0.8110    0.0000 HC        1 <0>         0.0000
     30 H6          4.5465    1.3336    0.0000 HC        1 <0>         0.0000
     31 H7          4.5465    1.3336    0.0000 HC        1 <0>         0.0000
     32 H8          4.5465    1.3336    0.0000 HC        1 <0>         0.0000
     33 H9          2.0306    1.7357    0.0000 HC        1 <0>         0.0000
     34 H10         2.0306    1.7357    0.0000 HC        1 <0>         0.0000
     35 H11         2.0306    1.7357    0.0000 HC        1 <0>         0.0000
     36 H12         4.5753   -0.8489    0.0000 HC        1 <0>         0.0000
     37 H13         4.5753   -0.8489    0.0000 HC        1 <0>         0.0000
     38 H14         3.7632   -0.7037    0.0000 HC        1 <0>         0.0000
     39 H15         3.7632   -0.7037    0.0000 HC        1 <0>         0.0000
     40 H16         2.0195   -0.2889    0.0000 HC        1 <0>         0.0000
     41 H17         2.0195   -0.2889    0.0000 HC        1 <0>         0.0000
     42 H18         1.3366    0.1740    0.0000 HC        1 <0>         0.0000
     43 H19         1.3366    0.1740    0.0000 HC        1 <0>         0.0000
     44 H20         6.1708    1.0432    0.0000 HC        1 <0>         0.0000
     45 H21         6.1708    1.0432    0.0000 HC        1 <0>         0.0000
     46 H22         3.7344    1.4788    0.0000 HC        1 <0>         0.0000
     47 H23         3.7344    1.4788    0.0000 HC        1 <0>         0.0000
     48 H24         5.3587    1.1884    0.0000 HC        1 <0>         0.0000
     49 H25         5.3587    1.1884    0.0000 HC        1 <0>         0.0000
     50 H26         2.9223    1.6240    0.0000 HC        1 <0>         0.0000
     51 H27         2.9223    1.6240    0.0000 HC        1 <0>         0.0000
     52 H28         5.9193   -0.3634    0.0000 HC        1 <0>         0.0000
     53 H29         5.9193   -0.3634    0.0000 HC        1 <0>         0.0000
     54 H30         0.2423    1.5050    0.0000 H1        1 <0>         0.0000
     55 H31         0.2423    1.5050    0.0000 H1        1 <0>         0.0000
     56 H32        -0.2639    2.1563    0.0000 HO        1 <0>         0.0000
@<TRIPOS>BOND
     1    3    4 1
     2    5    6 1
     3    7    9 1
     4    8   10 1
     5    3   13 1
     6   11   13 1
     7    7   14 1
     8   11   14 1
     9    4   15 1
    10    5   16 1
    11   15   16 1
    12    8   17 1
    13   15   17 1
    14    6   18 1
    15   12   19 1
    16   18   19 1
    17    1   20 1
    18    9   20 1
    19   13   20 1
    20   17   20 1
    21    2   21 1
    22   10   21 1
    23   16   21 1
    24   18   21 1
    25   12   22 1
    26   14   23 2
    27   19   24 2
    28   13   25 1
    29   15   26 1
    30   16   27 1
    31   17   28 1
    32   18   29 1
    33    1   30 1
    34    1   31 1
    35    1   32 1
    36    2   33 1
    37    2   34 1
    38    2   35 1
    39    3   36 1
    40    3   37 1
    41    4   38 1
    42    4   39 1
    43    5   40 1
    44    5   41 1
    45    6   42 1
    46    6   43 1
    47    7   44 1
    48    7   45 1
    49    8   46 1
    50    8   47 1
    51    9   48 1
    52    9   49 1
    53   10   50 1
    54   10   51 1
    55   11   52 1
    56   11   53 1
    57   12   54 1
    58   12   55 1
    59   22   56 1
@<TRIPOS>MOLECULE
*****
   66    66     0     0     0
SMALL
NO_CHARGES

@<TRIPOS>ATOM
      1 C1         -2.5715    0.4053    0.0000 CT        1 <0>         0.0000
      2 C2         -2.5715   -0.4192    0.0000 CT        1 <0>         0.0000
      3 C3         -3.3686    0.6527    0.0000 C         1 <0>         0.0000
      4 C4         -1.8568    1.0233    0.0000 CT        1 <0>         0.0000
      5 C5         -3.3686   -0.6940    0.0000 CT        1 <0>         0.0000
      6 C6         -1.8568   -1.0373    0.0000 CM        1 <0>         0.0000
      7 C7         -3.8358   -0.0344    0.0000 CT        1 <0>         0.0000
      8 O1         -3.6161    1.4224    0.0000 O         1 <0>         0.0000
      9 O2         -3.6161   -1.4638    0.0000 OH        1 <0>         0.0000
     10 C8         -1.1420   -0.6249    0.0000 CM        1 <0>         0.0000
     11 C9         -0.4274   -1.0373    0.0000 CT        1 <0>         0.0000
     12 C10         0.2872   -0.6249    0.0000 CT        1 <0>         0.0000
     13 C11         1.0019   -1.0373    0.0000 CT        1 <0>         0.0000
     14 C12         1.7165   -0.6249    0.0000 CT        1 <0>         0.0000
     15 C13         2.4313   -1.0373    0.0000 CT        1 <0>         0.0000
     16 C14         3.1459   -0.6249    0.0000 CT        1 <0>         0.0000
     17 C15        -1.1552    0.6220    0.0000 CT        1 <0>         0.0000
     18 C16        -0.4416    1.0341    0.0000 CT        1 <0>         0.0000
     19 C17         0.2721    0.6220    0.0000 CT        1 <0>         0.0000
     20 C18         0.9857    1.0341    0.0000 CM        1 <0>         0.0000
     21 C19         1.6994    0.6220    0.0000 CM        1 <0>         0.0000
     22 C20         2.4131    1.0341    0.0000 C         1 <0>         0.0000
     23 O3          3.1267    0.6220    0.0000 OS        1 <0>         0.0000
     24 O4         -0.4275   -1.8660    0.0000 OH        1 <0>         0.0000
     25 C21         0.8659   -0.0547    0.0000 CT        1 <0>         0.0000
     26 C22        -0.2868   -0.0547    0.0000 CT        1 <0>         0.0000
     27 O5          2.4132    1.8660    0.0000 O         1 <0>         0.0000
     28 C23         3.8358    1.0315    0.0000 CT        1 <0>         0.0000
     29 H1         -2.5715    0.4053    0.0000 HC        1 <0>         0.0000
     30 H2         -2.5715   -0.4192    0.0000 HC        1 <0>         0.0000
     31 H3         -1.8568    1.0233    0.0000 HC        1 <0>         0.0000
     32 H4         -1.8568    1.0233    0.0000 HC        1 <0>         0.0000
     33 H5         -3.3686   -0.6940    0.0000 H1        1 <0>         0.0000
     34 H6         -1.8568   -1.0373    0.0000 HA        1 <0>         0.0000
     35 H7         -3.8358   -0.0344    0.0000 HC        1 <0>         0.0000
     36 H8         -3.8358   -0.0344    0.0000 HC        1 <0>         0.0000
     37 H9         -3.6161   -1.4638    0.0000 HO        1 <0>         0.0000
     38 H10        -1.1420   -0.6249    0.0000 HA        1 <0>         0.0000
     39 H11        -0.4274   -1.0373    0.0000 H1        1 <0>         0.0000
     40 H12         1.0019   -1.0373    0.0000 HC        1 <0>         0.0000
     41 H13         1.0019   -1.0373    0.0000 HC        1 <0>         0.0000
     42 H14         1.7165   -0.6249    0.0000 HC        1 <0>         0.0000
     43 H15         1.7165   -0.6249    0.0000 HC        1 <0>         0.0000
     44 H16         2.4313   -1.0373    0.0000 HC        1 <0>         0.0000
     45 H17         2.4313   -1.0373    0.0000 HC        1 <0>         0.0000
     46 H18         3.1459   -0.6249    0.0000 HC        1 <0>         0.0000
     47 H19         3.1459   -0.6249    0.0000 HC        1 <0>         0.0000
     48 H20         3.1459   -0.6249    0.0000 HC        1 <0>         0.0000
     49 H21        -1.1552    0.6220    0.0000 HC        1 <0>         0.0000
     50 H22        -1.1552    0.6220    0.0000 HC        1 <0>         0.0000
     51 H23        -0.4416    1.0341    0.0000 HC        1 <0>         0.0000
     52 H24        -0.4416    1.0341    0.0000 HC        1 <0>         0.0000
     53 H25         0.2721    0.6220    0.0000 HC        1 <0>         0.0000
     54 H26         0.2721    0.6220    0.0000 HC        1 <0>         0.0000
     55 H27         0.9857    1.0341    0.0000 HA        1 <0>         0.0000
     56 H28         1.6994    0.6220    0.0000 HA        1 <0>         0.0000
     57 H29        -0.4275   -1.8660    0.0000 HO        1 <0>         0.0000
     58 H30         0.8659   -0.0547    0.0000 HC        1 <0>         0.0000
     59 H31         0.8659   -0.0547    0.0000 HC        1 <0>         0.0000
     60 H32         0.8659   -0.0547    0.0000 HC        1 <0>         0.0000
     61 H33        -0.2868   -0.0547    0.0000 HC        1 <0>         0.0000
     62 H34        -0.2868   -0.0547    0.0000 HC        1 <0>         0.0000
     63 H35        -0.2868   -0.0547    0.0000 HC        1 <0>         0.0000
     64 H36         3.8358    1.0315    0.0000 H1        1 <0>         0.0000
     65 H37         3.8358    1.0315    0.0000 H1        1 <0>         0.0000
     66 H38         3.8358    1.0315    0.0000 H1        1 <0>         0.0000
@<TRIPOS>BOND
     1    1    2 1
     2    1    3 1
     3    1    4 1
     4    2    5 1
     5    2    6 1
     6    3    7 1
     7    3    8 2
     8    5    9 1
     9    6   10 2
    10   10   11 1
    11   11   12 1
    12   12   13 1
    13   13   14 1
    14   14   15 1
    15   15   16 1
    16    5    7 1
    17    4   17 1
    18   17   18 1
    19   18   19 1
    20   19   20 1
    21   20   21 2
    22   21   22 1
    23   22   23 1
    24   11   24 1
    25   12   25 1
    26   12   26 1
    27   22   27 2
    28   23   28 1
    29    1   29 1
    30    2   30 1
    31    4   31 1
    32    4   32 1
    33    5   33 1
    34    6   34 1
    35    7   35 1
    36    7   36 1
    37    9   37 1
    38   10   38 1
    39   11   39 1
    40   13   40 1
    41   13   41 1
    42   14   42 1
    43   14   43 1
    44   15   44 1
    45   15   45 1
    46   16   46 1
    47   16   47 1
    48   16   48 1
    49   17   49 1
    50   17   50 1
    51   18   51 1
    52   18   52 1
    53   19   53 1
    54   19   54 1
    55   20   55 1
    56   21   56 1
    57   24   57 1
    58   25   58 1
    59   25   59 1
    60   25   60 1
    61   26   61 1
    62   26   62 1
    63   26   63 1
    64   28   64 1
    65   28   65 1
    66   28   66 1
@<TRIPOS>MOLECULE
*****
   33    34     0     0     0
SMALL
NO_CHARGES

@<TRIPOS>ATOM
      1 C1          8.5736    0.8250    0.0000 CA        1 <0>         0.0000
      2 C2          7.8591    1.2375    0.0000 CA        1 <0>         0.0000
      3 C3          8.5736    0.0000    0.0000 CA        1 <0>         0.0000
      4 C4          7.1447    0.8250    0.0000 CA        1 <0>         0.0000
      5 C5          7.8591   -0.4125    0.0000 CA        1 <0>         0.0000
      6 C6          5.7157    0.0000    0.0000 CA        1 <0>         0.0000
      7 C7          6.4302   -1.2375    0.0000 CA        1 <0>         0.0000
      8 C8          5.0012   -0.4125    0.0000 CA        1 <0>         0.0000
      9 C9          5.7157   -1.6500    0.0000 CA        1 <0>         0.0000
     10 C10         3.5723   -1.2375    0.0000 CT        1 <0>         0.0000
     11 C11         2.8578   -1.6500    0.0000 CT        1 <0>         0.0000
     12 C12         7.1447    0.0000    0.0000 CP        1 <0>         0.0000
     13 C13         6.4302   -0.4125    0.0000 CP        1 <0>         0.0000
     14 C14         5.0012   -1.2375    0.0000 CA        1 <0>         0.0000
     15 C15         4.2868   -1.6500    0.0000 C         1 <0>         0.0000
     16 C16         2.1434   -1.2375    0.0000 C         1 <0>         0.0000
     17 O1          4.2868   -2.4750    0.0000 O         1 <0>         0.0000
     18 O2          1.4289   -1.6500    0.0000 O         1 <0>         0.0000
     19 O3          2.1434   -0.4125    0.0000 OH        1 <0>         0.0000
     20 H1          8.5736    0.8250    0.0000 HA        1 <0>         0.0000
     21 H2          7.8591    1.2375    0.0000 HA        1 <0>         0.0000
     22 H3          8.5736    0.0000    0.0000 HA        1 <0>         0.0000
     23 H4          7.1447    0.8250    0.0000 HA        1 <0>         0.0000
     24 H5          7.8591   -0.4125    0.0000 HA        1 <0>         0.0000
     25 H6          5.7157    0.0000    0.0000 HA        1 <0>         0.0000
     26 H7          6.4302   -1.2375    0.0000 HA        1 <0>         0.0000
     27 H8          5.0012   -0.4125    0.0000 HA        1 <0>         0.0000
     28 H9          5.7157   -1.6500    0.0000 HA        1 <0>         0.0000
     29 H10         3.5723   -1.2375    0.0000 HC        1 <0>         0.0000
     30 H11         3.5723   -1.2375    0.0000 HC        1 <0>         0.0000
     31 H12         2.8578   -1.6500    0.0000 HC        1 <0>         0.0000
     32 H13         2.8578   -1.6500    0.0000 HC        1 <0>         0.0000
     33 H14         2.1434   -0.4125    0.0000 HO        1 <0>         0.0000
@<TRIPOS>BOND
     1    1    2 ar
     2    1    3 ar
     3    2    4 ar
     4    3    5 ar
     5    6    8 ar
     6    7    9 ar
     7   10   11 1
     8    4   12 ar
     9    5   12 ar
    10    6   13 ar
    11    7   13 ar
    12   12   13 1
    13    8   14 ar
    14    9   14 ar
    15   10   15 1
    16   14   15 1
    17   11   16 1
    18   15   17 2
    19   16   18 2
    20   16   19 1
    21    1   20 1
    22    2   21 1
    23    3   22 1
    24    4   23 1
    25    5   24 1
    26    6   25 1
    27    7   26 1
    28    8   27 1
    29    9   28 1
    30   10   29 1
    31   10   30 1
    32   11   31 1
    33   11   32 1
    34   19   33 1
@<TRIPOS>MOLECULE
5281613
   75    79     0     0     0
SMALL
NO_CHARGES

@<TRIPOS>ATOM
      1 O1          9.5685    0.8328    0.0000 OS        1 <0>         0.0000
      2 O2         11.7230   -2.0465    0.0000 OS        1 <0>         0.0000
      3 O3         11.0038   -0.8118    0.0000 OS        1 <0>         0.0000
      4 O4         11.7136    0.4285    0.0000 OH        1 <0>         0.0000
      5 O5         11.7072    2.0785    0.0000 OH        1 <0>         0.0000
      6 O6          8.8493    2.0675    0.0000 OS        1 <0>         0.0000
      7 O7         10.2751    2.8980    0.0000 OH        1 <0>         0.0000
      8 O8          9.5780   -1.6423    0.0000 OH        1 <0>         0.0000
      9 O9          9.5845   -3.2923    0.0000 OH        1 <0>         0.0000
     10 O10        11.0165   -4.1118    0.0000 OH        1 <0>         0.0000
     11 O11         5.9369    2.0475    0.0000 OS        1 <0>         0.0000
     12 O12         7.3794   -0.4560    0.0000 OH        1 <0>         0.0000
     13 O13         5.9369   -0.4274    0.0000 O         1 <0>         0.0000
     14 O14         2.3645    3.2850    0.0000 OS        1 <0>         0.0000
     15 O15         3.7935    4.1100    0.0000 OH        1 <0>         0.0000
     16 C1         10.2846    0.4230    0.0000 CT        1 <0>         0.0000
     17 C2         10.9974    0.8382    0.0000 CT        1 <0>         0.0000
     18 C3         10.9943    1.6632    0.0000 CT        1 <0>         0.0000
     19 C4         10.2782    2.0730    0.0000 CT        1 <0>         0.0000
     20 C5         10.2941   -2.0520    0.0000 CT        1 <0>         0.0000
     21 C6         11.0070   -1.6368    0.0000 CT        1 <0>         0.0000
     22 C7         10.2973   -2.8771    0.0000 CT        1 <0>         0.0000
     23 C8         11.0134   -3.2868    0.0000 CT        1 <0>         0.0000
     24 C9          9.5653    1.6578    0.0000 CT        1 <0>         0.0000
     25 C10        11.7263   -2.8715    0.0000 CT        1 <0>         0.0000
     26 C11        10.2878   -0.4020    0.0000 CT        1 <0>         0.0000
     27 C12        12.4423   -3.2813    0.0000 CT        1 <0>         0.0000
     28 C13         8.1364    1.6522    0.0000 CA        1 <0>         0.0000
     29 C14         7.3889    2.0761    0.0000 CA        1 <0>         0.0000
     30 C15         8.1364    0.7928    0.0000 CA        1 <0>         0.0000
     31 C16         6.6514    1.6350    0.0000 CB        1 <0>         0.0000
     32 C17         7.3889    0.3689    0.0000 CA        1 <0>         0.0000
     33 C18         6.6514    0.8101    0.0000 CB        1 <0>         0.0000
     34 C19         5.9369    0.3976    0.0000 C         1 <0>         0.0000
     35 C20         5.2224    1.6350    0.0000 CP        1 <0>         0.0000
     36 C21         5.2224    0.8101    0.0000 CA        1 <0>         0.0000
     37 C22         4.5079    2.0475    0.0000 CP        1 <0>         0.0000
     38 C23         4.5079    2.8725    0.0000 CA        1 <0>         0.0000
     39 C24         3.7935    1.6350    0.0000 CA        1 <0>         0.0000
     40 C25         3.7935    3.2850    0.0000 CA        1 <0>         0.0000
     41 C26         3.0789    2.0475    0.0000 CA        1 <0>         0.0000
     42 C27         3.0789    2.8725    0.0000 CA        1 <0>         0.0000
     43 C28         1.6500    2.8725    0.0000 CT        1 <0>         0.0000
     44 H1         11.7136    0.4285    0.0000 HO        1 <0>         0.0000
     45 H2         11.7072    2.0785    0.0000 HO        1 <0>         0.0000
     46 H3         10.2751    2.8980    0.0000 HO        1 <0>         0.0000
     47 H4          9.5780   -1.6423    0.0000 HO        1 <0>         0.0000
     48 H5          9.5845   -3.2923    0.0000 HO        1 <0>         0.0000
     49 H6         11.0165   -4.1118    0.0000 HO        1 <0>         0.0000
     50 H7          7.3794   -0.4560    0.0000 HO        1 <0>         0.0000
     51 H8          3.7935    4.1100    0.0000 HO        1 <0>         0.0000
     52 H9         10.2846    0.4230    0.0000 H1        1 <0>         0.0000
     53 H10        10.9974    0.8382    0.0000 H1        1 <0>         0.0000
     54 H11        10.9943    1.6632    0.0000 H1        1 <0>         0.0000
     55 H12        10.2782    2.0730    0.0000 H1        1 <0>         0.0000
     56 H13        10.2941   -2.0520    0.0000 H1        1 <0>         0.0000
     57 H14        11.0070   -1.6368    0.0000 H2        1 <0>         0.0000
     58 H15        10.2973   -2.8771    0.0000 H1        1 <0>         0.0000
     59 H16        11.0134   -3.2868    0.0000 H1        1 <0>         0.0000
     60 H17         9.5653    1.6578    0.0000 H2        1 <0>         0.0000
     61 H18        11.7263   -2.8715    0.0000 H1        1 <0>         0.0000
     62 H19        10.2878   -0.4020    0.0000 H1        1 <0>         0.0000
     63 H20        10.2878   -0.4020    0.0000 H1        1 <0>         0.0000
     64 H21        12.4423   -3.2813    0.0000 HC        1 <0>         0.0000
     65 H22        12.4423   -3.2813    0.0000 HC        1 <0>         0.0000
     66 H23        12.4423   -3.2813    0.0000 HC        1 <0>         0.0000
     67 H24         7.3889    2.0761    0.0000 HA        1 <0>         0.0000
     68 H25         8.1364    0.7928    0.0000 HA        1 <0>         0.0000
     69 H26         5.2224    0.8101    0.0000 HA        1 <0>         0.0000
     70 H27         4.5079    2.8725    0.0000 HA        1 <0>         0.0000
     71 H28         3.7935    1.6350    0.0000 HA        1 <0>         0.0000
     72 H29         3.0789    2.0475    0.0000 HA        1 <0>         0.0000
     73 H30         1.6500    2.8725    0.0000 H1        1 <0>         0.0000
     74 H31         1.6500    2.8725    0.0000 H1        1 <0>         0.0000
     75 H32         1.6500    2.8725    0.0000 H1        1 <0>         0.0000
@<TRIPOS>BOND
     1    1   16 1
     2    1   24 1
     3    2   21 1
     4    2   25 1
     5    3   21 1
     6    3   26 1
     7    4   17 1
     8    5   18 1
     9    6   24 1
    10    6   28 1
    11    7   19 1
    12    8   20 1
    13    9   22 1
    14   10   23 1
    15   11   31 1
    16   11   35 1
    17   12   32 1
    18   13   34 2
    19   14   42 1
    20   14   43 1
    21   15   40 1
    22   16   17 1
    23   16   26 1
    24   17   18 1
    25   18   19 1
    26   19   24 1
    27   20   21 1
    28   20   22 1
    29   22   23 1
    30   23   25 1
    31   25   27 1
    32   28   29 ar
    33   28   30 ar
    34   29   31 ar
    35   30   32 ar
    36   31   33 ar
    37   32   33 ar
    38   33   34 1
    39   34   36 1
    40   35   36 2
    41   35   37 1
    42   37   38 ar
    43   37   39 ar
    44   38   40 ar
    45   39   41 ar
    46   40   42 ar
    47   41   42 ar
    48    4   44 1
    49    5   45 1
    50    7   46 1
    51    8   47 1
    52    9   48 1
    53   10   49 1
    54   12   50 1
    55   15   51 1
    56   16   52 1
    57   17   53 1
    58   18   54 1
    59   19   55 1
    60   20   56 1
    61   21   57 1
    62   22   58 1
    63   23   59 1
    64   24   60 1
    65   25   61 1
    66   26   62 1
    67   26   63 1
    68   27   64 1
    69   27   65 1
    70   27   66 1
    71   29   67 1
    72   30   68 1
    73   36   69 1
    74   38   70 1
    75   39   71 1
    76   41   72 1
    77   43   73 1
    78   43   74 1
    79   43   75 1
@<TRIPOS>MOLECULE
*****
   51    54     0     0     0
SMALL
NO_CHARGES

@<TRIPOS>ATOM
      1 C1          0.4735    1.8876    0.0000 CT        1 <0>         0.0000
      2 C2          1.6254    1.7894    0.0000 CT        1 <0>         0.0000
      3 C3          2.0306    1.7357    0.0000 CT        1 <0>         0.0000
      4 C4          4.5753   -0.8489    0.0000 CT        1 <0>         0.0000
      5 C5          6.1708    1.0432    0.0000 CT        1 <0>         0.0000
      6 C6          3.7632   -0.7037    0.0000 CT        1 <0>         0.0000
      7 C7          5.3587    1.1884    0.0000 CT        1 <0>         0.0000
      8 C8          3.7344    1.4788    0.0000 CT        1 <0>         0.0000
      9 C9          2.0195   -0.2889    0.0000 CT        1 <0>         0.0000
     10 C10         2.9223    1.6240    0.0000 CT        1 <0>         0.0000
     11 C11         1.3366    0.1740    0.0000 CT        1 <0>         0.0000
     12 C12         5.9193   -0.3634    0.0000 CM        1 <0>         0.0000
     13 C13         0.7538    1.1117    0.0000 C         1 <0>         0.0000
     14 C14         5.1071   -0.2182    0.0000 CM        1 <0>         0.0000
     15 C15         6.4511    0.2672    0.0000 C         1 <0>         0.0000
     16 C16         4.8268    0.5577    0.0000 CM        1 <0>         0.0000
     17 C17         4.0147    0.7029    0.0000 CM        1 <0>         0.0000
     18 C18         3.4829    0.0722    0.0000 CT        1 <0>         0.0000
     19 C19         2.6708    0.2174    0.0000 CT        1 <0>         0.0000
     20 C20         1.5659    0.9665    0.0000 CT        1 <0>         0.0000
     21 C21         2.3905    0.9933    0.0000 CT        1 <0>         0.0000
     22 O1          0.2220    0.4810    0.0000 O         1 <0>         0.0000
     23 O2          7.2632    0.1220    0.0000 O         1 <0>         0.0000
     24 H1          3.1989   -0.7023    0.0000 HC        1 <0>         0.0000
     25 H2          2.5826   -0.6028    0.0000 HC        1 <0>         0.0000
     26 H3          0.4735    1.8876    0.0000 HC        1 <0>         0.0000
     27 H4          0.4735    1.8876    0.0000 HC        1 <0>         0.0000
     28 H5          0.4735    1.8876    0.0000 HC        1 <0>         0.0000
     29 H6          1.6254    1.7894    0.0000 HC        1 <0>         0.0000
     30 H7          1.6254    1.7894    0.0000 HC        1 <0>         0.0000
     31 H8          1.6254    1.7894    0.0000 HC        1 <0>         0.0000
     32 H9          2.0306    1.7357    0.0000 HC        1 <0>         0.0000
     33 H10         2.0306    1.7357    0.0000 HC        1 <0>         0.0000
     34 H11         2.0306    1.7357    0.0000 HC        1 <0>         0.0000
     35 H12         4.5753   -0.8489    0.0000 HC        1 <0>         0.0000
     36 H13         4.5753   -0.8489    0.0000 HC        1 <0>         0.0000
     37 H14         6.1708    1.0432    0.0000 HC        1 <0>         0.0000
     38 H15         6.1708    1.0432    0.0000 HC        1 <0>         0.0000
     39 H16         3.7632   -0.7037    0.0000 HC        1 <0>         0.0000
     40 H17         3.7632   -0.7037    0.0000 HC        1 <0>         0.0000
     41 H18         5.3587    1.1884    0.0000 HC        1 <0>         0.0000
     42 H19         5.3587    1.1884    0.0000 HC        1 <0>         0.0000
     43 H20         3.7344    1.4788    0.0000 HC        1 <0>         0.0000
     44 H21         3.7344    1.4788    0.0000 HC        1 <0>         0.0000
     45 H22         2.0195   -0.2889    0.0000 HC        1 <0>         0.0000
     46 H23         2.0195   -0.2889    0.0000 HC        1 <0>         0.0000
     47 H24         2.9223    1.6240    0.0000 HC        1 <0>         0.0000
     48 H25         2.9223    1.6240    0.0000 HC        1 <0>         0.0000
     49 H26         1.3366    0.1740    0.0000 HC        1 <0>         0.0000
     50 H27         1.3366    0.1740    0.0000 HC        1 <0>         0.0000
     51 H28         5.9193   -0.3634    0.0000 HA        1 <0>         0.0000
@<TRIPOS>BOND
     1    4    6 1
     2    5    7 1
     3    8   10 1
     4    9   11 1
     5    1   13 1
     6    4   14 1
     7   12   14 2
     8    5   15 1
     9   12   15 1
    10    7   16 1
    11   14   16 1
    12    8   17 1
    13   16   17 2
    14    6   18 1
    15   17   18 1
    16    9   19 1
    17   18   19 1
    18    2   20 1
    19   11   20 1
    20   13   20 1
    21    3   21 1
    22   10   21 1
    23   19   21 1
    24   20   21 1
    25   13   22 2
    26   15   23 2
    27   18   24 1
    28   19   25 1
    29    1   26 1
    30    1   27 1
    31    1   28 1
    32    2   29 1
    33    2   30 1
    34    2   31 1
    35    3   32 1
    36    3   33 1
    37    3   34 1
    38    4   35 1
    39    4   36 1
    40    5   37 1
    41    5   38 1
    42    6   39 1
    43    6   40 1
    44    7   41 1
    45    7   42 1
    46    8   43 1
    47    8   44 1
    48    9   45 1
    49    9   46 1
    50   10   47 1
    51   10   48 1
    52   11   49 1
    53   11   50 1
    54   12   51 1
@<TRIPOS>MOLECULE
*****
   70    72     0     0     0
SMALL
NO_CHARGES

@<TRIPOS>ATOM
      1 C1         -1.6885    6.3755    0.0000 CT        1 <0>         0.0000
      2 C2         -5.5394    2.9748    0.0000 CT        1 <0>         0.0000
      3 C3         -1.1265    5.2674    0.0000 CT        1 <0>         0.0000
      4 C4         -3.7110    1.7825    0.0000 CT        1 <0>         0.0000
      5 C5         -0.8640    6.4042    0.0000 CT        1 <0>         0.0000
      6 C6         -5.3120    2.1817    0.0000 CT        1 <0>         0.0000
      7 C7         -1.5389    0.4412    0.0000 CT        1 <0>         0.0000
      8 C8         -0.8244    0.8537    0.0000 CT        1 <0>         0.0000
      9 C9         -2.2534    0.8537    0.0000 CT        1 <0>         0.0000
     10 C10        -2.5262    4.0379    0.0000 CA        1 <0>         0.0000
     11 C11        -1.9328    3.4648    0.0000 CA        1 <0>         0.0000
     12 C12        -3.3193    3.8105    0.0000 CA        1 <0>         0.0000
     13 C13        -0.3271    2.8485    0.0000 CA        1 <0>         0.0000
     14 C14        -1.5888    3.5193    0.0000 CA        1 <0>         0.0000
     15 C15         0.0601    3.5769    0.0000 CA        1 <0>         0.0000
     16 C16        -1.2015    4.2477    0.0000 CA        1 <0>         0.0000
     17 C17        -0.8244    1.6787    0.0000 CT        1 <0>         0.0000
     18 C18        -2.2534    1.6787    0.0000 CT        1 <0>         0.0000
     19 C19        -2.9254    2.4369    0.0000 CA        1 <0>         0.0000
     20 C20        -1.1516    2.8197    0.0000 CA        1 <0>         0.0000
     21 C21        -2.1324    2.6643    0.0000 CA        1 <0>         0.0000
     22 C22        -0.3770    4.2765    0.0000 CA        1 <0>         0.0000
     23 C23        -3.5189    3.0100    0.0000 CA        1 <0>         0.0000
     24 C24         0.2727    6.1418    0.0000 C         1 <0>         0.0000
     25 C25        -4.7111    1.1816    0.0000 C         1 <0>         0.0000
     26 C26        -0.4268    5.7046    0.0000 CT        1 <0>         0.0000
     27 C27        -4.5115    1.9821    0.0000 CT        1 <0>         0.0000
     28 C28        -1.5389    2.0912    0.0000 CT        1 <0>         0.0000
     29 O1          0.2439    6.9663    0.0000 O         1 <0>         0.0000
     30 O2          1.0011    5.7545    0.0000 OH        1 <0>         0.0000
     31 O3         -4.1176    0.6085    0.0000 O         1 <0>         0.0000
     32 O4         -5.5041    0.9542    0.0000 OH        1 <0>         0.0000
     33 O5          0.0102    5.0050    0.0000 OS        1 <0>         0.0000
     34 O6         -4.3119    2.7826    0.0000 OS        1 <0>         0.0000
     35 H1         -1.6885    6.3755    0.0000 HC        1 <0>         0.0000
     36 H2         -1.6885    6.3755    0.0000 HC        1 <0>         0.0000
     37 H3         -1.6885    6.3755    0.0000 HC        1 <0>         0.0000
     38 H4         -5.5394    2.9748    0.0000 HC        1 <0>         0.0000
     39 H5         -5.5394    2.9748    0.0000 HC        1 <0>         0.0000
     40 H6         -5.5394    2.9748    0.0000 HC        1 <0>         0.0000
     41 H7         -1.1265    5.2674    0.0000 HC        1 <0>         0.0000
     42 H8         -1.1265    5.2674    0.0000 HC        1 <0>         0.0000
     43 H9         -1.1265    5.2674    0.0000 HC        1 <0>         0.0000
     44 H10        -3.7110    1.7825    0.0000 HC        1 <0>         0.0000
     45 H11        -3.7110    1.7825    0.0000 HC        1 <0>         0.0000
     46 H12        -3.7110    1.7825    0.0000 HC        1 <0>         0.0000
     47 H13        -0.8640    6.4042    0.0000 HC        1 <0>         0.0000
     48 H14        -0.8640    6.4042    0.0000 HC        1 <0>         0.0000
     49 H15        -5.3120    2.1817    0.0000 HC        1 <0>         0.0000
     50 H16        -5.3120    2.1817    0.0000 HC        1 <0>         0.0000
     51 H17        -1.5389    0.4412    0.0000 HC        1 <0>         0.0000
     52 H18        -1.5389    0.4412    0.0000 HC        1 <0>         0.0000
     53 H19        -0.8244    0.8537    0.0000 HC        1 <0>         0.0000
     54 H20        -0.8244    0.8537    0.0000 HC        1 <0>         0.0000
     55 H21        -2.2534    0.8537    0.0000 HC        1 <0>         0.0000
     56 H22        -2.2534    0.8537    0.0000 HC        1 <0>         0.0000
     57 H23        -2.5262    4.0379    0.0000 HA        1 <0>         0.0000
     58 H24        -1.9328    3.4648    0.0000 HA        1 <0>         0.0000
     59 H25        -3.3193    3.8105    0.0000 HA        1 <0>         0.0000
     60 H26        -0.3271    2.8485    0.0000 HA        1 <0>         0.0000
     61 H27        -1.5888    3.5193    0.0000 HA        1 <0>         0.0000
     62 H28         0.0601    3.5769    0.0000 HA        1 <0>         0.0000
     63 H29        -1.2015    4.2477    0.0000 HA        1 <0>         0.0000
     64 H30        -0.8244    1.6787    0.0000 HC        1 <0>         0.0000
     65 H31        -0.8244    1.6787    0.0000 HC        1 <0>         0.0000
     66 H32        -2.2534    1.6787    0.0000 HC        1 <0>         0.0000
     67 H33        -2.2534    1.6787    0.0000 HC        1 <0>         0.0000
     68 H34        -2.9254    2.4369    0.0000 HA        1 <0>         0.0000
     69 H35         1.0011    5.7545    0.0000 HO        1 <0>         0.0000
     70 H36        -5.5041    0.9542    0.0000 HO        1 <0>         0.0000
@<TRIPOS>BOND
     1    1    5 1
     2    2    6 1
     3    7    8 1
     4    7    9 1
     5   10   11 ar
     6   10   12 ar
     7   13   15 ar
     8   14   16 ar
     9    8   17 1
    10    9   18 1
    11   13   20 ar
    12   14   20 ar
    13   11   21 ar
    14   19   21 ar
    15   15   22 ar
    16   16   22 ar
    17   12   23 ar
    18   19   23 ar
    19    3   26 1
    20    5   26 1
    21   24   26 1
    22    4   27 1
    23    6   27 1
    24   25   27 1
    25   17   28 1
    26   18   28 1
    27   20   28 1
    28   21   28 1
    29   24   29 2
    30   24   30 1
    31   25   31 2
    32   25   32 1
    33   22   33 1
    34   26   33 1
    35   23   34 1
    36   27   34 1
    37    1   35 1
    38    1   36 1
    39    1   37 1
    40    2   38 1
    41    2   39 1
    42    2   40 1
    43    3   41 1
    44    3   42 1
    45    3   43 1
    46    4   44 1
    47    4   45 1
    48    4   46 1
    49    5   47 1
    50    5   48 1
    51    6   49 1
    52    6   50 1
    53    7   51 1
    54    7   52 1
    55    8   53 1
    56    8   54 1
    57    9   55 1
    58    9   56 1
    59   10   57 1
    60   11   58 1
    61   12   59 1
    62   13   60 1
    63   14   61 1
    64   15   62 1
    65   16   63 1
    66   17   64 1
    67   17   65 1
    68   18   66 1
    69   18   67 1
    70   19   68 1
    71   30   69 1
    72   32   70 1
@<TRIPOS>MOLECULE
*****
   56    59     0     0     0
SMALL
NO_CHARGES

@<TRIPOS>ATOM
      1 O1          3.2547   -0.1813    0.0000 OH        1 <0>         0.0000
      2 O2         -3.2546   -1.1710    0.0000 O         1 <0>         0.0000
      3 O3          0.8387    2.0389    0.0000 OH        1 <0>         0.0000
      4 O4          2.2640    2.1420    0.0000 O         1 <0>         0.0000
      5 C1          1.6179   -0.2997    0.0000 CT        1 <0>         0.0000
      6 C2          1.3377   -1.0756    0.0000 CT        1 <0>         0.0000
      7 C3          2.4426   -0.3265    0.0000 CT        1 <0>         0.0000
      8 C4          0.5256   -1.2208    0.0000 CT        1 <0>         0.0000
      9 C5         -0.0062   -0.5901    0.0000 CT        1 <0>         0.0000
     10 C6         -0.8184   -0.7353    0.0000 CT        1 <0>         0.0000
     11 C7          1.0862    0.3309    0.0000 CT        1 <0>         0.0000
     12 C8          1.9890   -1.5820    0.0000 CT        1 <0>         0.0000
     13 C9          2.6719   -1.1190    0.0000 CT        1 <0>         0.0000
     14 C10        -1.0986   -1.5112    0.0000 CM        1 <0>         0.0000
     15 C11         0.2740    0.1857    0.0000 CT        1 <0>         0.0000
     16 C12         0.2452   -1.9967    0.0000 CM        1 <0>         0.0000
     17 C13         2.3830    0.4963    0.0000 CT        1 <0>         0.0000
     18 C14         1.9779    0.4426    0.0000 CT        1 <0>         0.0000
     19 C15        -0.5668   -2.1420    0.0000 CM        1 <0>         0.0000
     20 C16        -1.3501   -0.1046    0.0000 CT        1 <0>         0.0000
     21 C17        -1.9108   -1.6565    0.0000 CM        1 <0>         0.0000
     22 C18        -0.5380    0.0405    0.0000 CT        1 <0>         0.0000
     23 C19        -2.4425   -1.0258    0.0000 C         1 <0>         0.0000
     24 C20        -2.1622   -0.2498    0.0000 CT        1 <0>         0.0000
     25 C21         1.6406    0.8561    0.0000 CT        1 <0>         0.0000
     26 C22         1.5811    1.6790    0.0000 C         1 <0>         0.0000
     27 H1         -0.6508    0.1743    0.0000 HC        1 <0>         0.0000
     28 H2          1.1701   -1.9853    0.0000 HC        1 <0>         0.0000
     29 H3          1.0981   -2.0465    0.0000 HC        1 <0>         0.0000
     30 H4          3.2547   -0.1813    0.0000 HO        1 <0>         0.0000
     31 H5          0.8387    2.0389    0.0000 HO        1 <0>         0.0000
     32 H6          1.0862    0.3309    0.0000 HC        1 <0>         0.0000
     33 H7          1.0862    0.3309    0.0000 HC        1 <0>         0.0000
     34 H8          1.9890   -1.5820    0.0000 HC        1 <0>         0.0000
     35 H9          1.9890   -1.5820    0.0000 HC        1 <0>         0.0000
     36 H10         2.6719   -1.1190    0.0000 HC        1 <0>         0.0000
     37 H11         2.6719   -1.1190    0.0000 HC        1 <0>         0.0000
     38 H12         0.2740    0.1857    0.0000 HC        1 <0>         0.0000
     39 H13         0.2740    0.1857    0.0000 HC        1 <0>         0.0000
     40 H14         0.2452   -1.9967    0.0000 HA        1 <0>         0.0000
     41 H15         2.3830    0.4963    0.0000 HC        1 <0>         0.0000
     42 H16         2.3830    0.4963    0.0000 HC        1 <0>         0.0000
     43 H17         1.9779    0.4426    0.0000 HC        1 <0>         0.0000
     44 H18         1.9779    0.4426    0.0000 HC        1 <0>         0.0000
     45 H19         1.9779    0.4426    0.0000 HC        1 <0>         0.0000
     46 H20        -0.5668   -2.1420    0.0000 HA        1 <0>         0.0000
     47 H21        -1.3501   -0.1046    0.0000 HC        1 <0>         0.0000
     48 H22        -1.3501   -0.1046    0.0000 HC        1 <0>         0.0000
     49 H23        -1.9108   -1.6565    0.0000 HA        1 <0>         0.0000
     50 H24        -0.5380    0.0405    0.0000 HC        1 <0>         0.0000
     51 H25        -0.5380    0.0405    0.0000 HC        1 <0>         0.0000
     52 H26        -0.5380    0.0405    0.0000 HC        1 <0>         0.0000
     53 H27        -2.1622   -0.2498    0.0000 HC        1 <0>         0.0000
     54 H28        -2.1622   -0.2498    0.0000 HC        1 <0>         0.0000
     55 H29         1.6406    0.8561    0.0000 HC        1 <0>         0.0000
     56 H30         1.6406    0.8561    0.0000 HC        1 <0>         0.0000
@<TRIPOS>BOND
     1    1    7 1
     2    2   23 2
     3    3   26 1
     4    4   26 2
     5    5    6 1
     6    5    7 1
     7    5   11 1
     8    5   18 1
     9    6    8 1
    10    6   12 1
    11    7   13 1
    12    7   17 1
    13    8    9 1
    14    8   16 1
    15    9   10 1
    16    9   15 1
    17   10   14 1
    18   10   20 1
    19   10   22 1
    20   11   15 1
    21   12   13 1
    22   14   19 1
    23   14   21 2
    24   16   19 2
    25   17   25 1
    26   20   24 1
    27   21   23 1
    28   23   24 1
    29   25   26 1
    30    9   27 1
    31    8   28 1
    32    6   29 1
    33    1   30 1
    34    3   31 1
    35   11   32 1
    36   11   33 1
    37   12   34 1
    38   12   35 1
    39   13   36 1
    40   13   37 1
    41   15   38 1
    42   15   39 1
    43   16   40 1
    44   17   41 1
    45   17   42 1
    46   18   43 1
    47   18   44 1
    48   18   45 1
    49   19   46 1
    50   20   47 1
    51   20   48 1
    52   21   49 1
    53   22   50 1
    54   22   51 1
    55   22   52 1
    56   24   53 1
    57   24   54 1
    58   25   55 1
    59   25   56 1
@<TRIPOS>MOLECULE
*****
   53    54     0     0     0
SMALL
NO_CHARGES

@<TRIPOS>ATOM
      1 C1         -0.7141   -1.6592    0.0000 CA        1 <0>         0.0000
      2 C2          0.0022   -1.2459    0.0000 CA        1 <0>         0.0000
      3 C3         -0.0006   -0.4155    0.0000 CA        1 <0>         0.0000
      4 C4         -0.7159   -0.0063    0.0000 CA        1 <0>         0.0000
      5 C5         -1.4289   -1.2464    0.0000 CA        1 <0>         0.0000
      6 C6         -1.4246   -0.4191    0.0000 CA        1 <0>         0.0000
      7 C7         -2.8584   -1.2392    0.0000 CM        1 <0>         0.0000
      8 C8         -2.8543   -0.4118    0.0000 CT        1 <0>         0.0000
      9 C9         -2.1308   -0.0061    0.0000 CT        1 <0>         0.0000
     10 C10        -2.1204    0.8187    0.0000 CM        1 <0>         0.0000
     11 C11        -2.8318    1.2440    0.0000 CM        1 <0>         0.0000
     12 C12        -3.5555    0.8383    0.0000 CT        1 <0>         0.0000
     13 C13        -3.5675    0.0072    0.0000 CT        1 <0>         0.0000
     14 C14        -2.8205    2.0689    0.0000 CT        1 <0>         0.0000
     15 O1         -0.7191    0.8186    0.0000 OH        1 <0>         0.0000
     16 C15         0.7173   -1.6573    0.0000 CT        1 <0>         0.0000
     17 C16         1.4310   -1.2436    0.0000 CT        1 <0>         0.0000
     18 C17         2.1461   -1.6550    0.0000 CT        1 <0>         0.0000
     19 C18         2.8598   -1.2414    0.0000 CT        1 <0>         0.0000
     20 C19         3.5749   -1.6528    0.0000 CT        1 <0>         0.0000
     21 C20        -2.1461   -1.6553    0.0000 CM        1 <0>         0.0000
     22 C21        -3.5749   -1.6481    0.0000 CT        1 <0>         0.0000
     23 O2         -1.4346   -2.0689    0.0000 OH        1 <0>         0.0000
     24 H1         -0.7141   -1.6592    0.0000 HA        1 <0>         0.0000
     25 H2         -0.0006   -0.4155    0.0000 HA        1 <0>         0.0000
     26 H3         -2.8543   -0.4118    0.0000 HC        1 <0>         0.0000
     27 H4         -2.1308   -0.0061    0.0000 HC        1 <0>         0.0000
     28 H5         -2.1204    0.8187    0.0000 HA        1 <0>         0.0000
     29 H6         -3.5555    0.8383    0.0000 HC        1 <0>         0.0000
     30 H7         -3.5555    0.8383    0.0000 HC        1 <0>         0.0000
     31 H8         -3.5675    0.0072    0.0000 HC        1 <0>         0.0000
     32 H9         -3.5675    0.0072    0.0000 HC        1 <0>         0.0000
     33 H10        -2.8205    2.0689    0.0000 HC        1 <0>         0.0000
     34 H11        -2.8205    2.0689    0.0000 HC        1 <0>         0.0000
     35 H12        -2.8205    2.0689    0.0000 HC        1 <0>         0.0000
     36 H13        -0.7191    0.8186    0.0000 HO        1 <0>         0.0000
     37 H14         0.7173   -1.6573    0.0000 HC        1 <0>         0.0000
     38 H15         0.7173   -1.6573    0.0000 HC        1 <0>         0.0000
     39 H16         1.4310   -1.2436    0.0000 HC        1 <0>         0.0000
     40 H17         1.4310   -1.2436    0.0000 HC        1 <0>         0.0000
     41 H18         2.1461   -1.6550    0.0000 HC        1 <0>         0.0000
     42 H19         2.1461   -1.6550    0.0000 HC        1 <0>         0.0000
     43 H20         2.8598   -1.2414    0.0000 HC        1 <0>         0.0000
     44 H21         2.8598   -1.2414    0.0000 HC        1 <0>         0.0000
     45 H22         3.5749   -1.6528    0.0000 HC        1 <0>         0.0000
     46 H23         3.5749   -1.6528    0.0000 HC        1 <0>         0.0000
     47 H24         3.5749   -1.6528    0.0000 HC        1 <0>         0.0000
     48 H25        -2.1461   -1.6553    0.0000 HA        1 <0>         0.0000
     49 H26        -2.1461   -1.6553    0.0000 HA        1 <0>         0.0000
     50 H27        -3.5749   -1.6481    0.0000 HC        1 <0>         0.0000
     51 H28        -3.5749   -1.6481    0.0000 HC        1 <0>         0.0000
     52 H29        -3.5749   -1.6481    0.0000 HC        1 <0>         0.0000
     53 H30        -1.4346   -2.0689    0.0000 HO        1 <0>         0.0000
@<TRIPOS>BOND
     1    8   13 1
     2    9   10 1
     3   10   11 2
     4   11   12 1
     5   12   13 1
     6    2    3 ar
     7   11   14 1
     8    6    9 1
     9    4   15 1
    10    7    8 1
    11    2   16 1
    12    8    9 1
    13   16   17 1
    14   17   18 1
    15    3    4 ar
    16   18   19 1
    17    4    6 ar
    18   19   20 1
    19    5    6 ar
    20    7   21 2
    21    1    2 ar
    22    7   22 1
    23    1    5 ar
    24    5   23 1
    25    1   24 1
    26    3   25 1
    27    8   26 1
    28    9   27 1
    29   10   28 1
    30   12   29 1
    31   12   30 1
    32   13   31 1
    33   13   32 1
    34   14   33 1
    35   14   34 1
    36   14   35 1
    37   15   36 1
    38   16   37 1
    39   16   38 1
    40   17   39 1
    41   17   40 1
    42   18   41 1
    43   18   42 1
    44   19   43 1
    45   19   44 1
    46   20   45 1
    47   20   46 1
    48   20   47 1
    49   21   48 1
    50   21   49 1
    51   22   50 1
    52   22   51 1
    53   22   52 1
    54   23   53 1
@<TRIPOS>MOLECULE
*****
   54    54     0     0     0
SMALL
NO_CHARGES

@<TRIPOS>ATOM
      1 C1         -1.1721    0.4133    0.0000 CA        1 <0>         0.0000
      2 C2         -1.1721   -0.4134    0.0000 CA        1 <0>         0.0000
      3 C3         -0.4544   -0.8267    0.0000 C         1 <0>         0.0000
      4 C4          0.2589   -0.4134    0.0000 CA        1 <0>         0.0000
      5 C5          0.2589    0.4133    0.0000 CA        1 <0>         0.0000
      6 C6         -0.4544    0.8266    0.0000 C         1 <0>         0.0000
      7 O1         -0.4534    1.6534    0.0000 O         1 <0>         0.0000
      8 O2         -0.4534   -1.6534    0.0000 O         1 <0>         0.0000
      9 C7          0.9752    0.8261    0.0000 CT        1 <0>         0.0000
     10 O3         -1.8879    0.8270    0.0000 OS        1 <0>         0.0000
     11 O4         -1.8879   -0.8271    0.0000 OS        1 <0>         0.0000
     12 C8         -2.6041   -0.4141    0.0000 CT        1 <0>         0.0000
     13 C9          0.9697   -0.8267    0.0000 CT        1 <0>         0.0000
     14 C10         1.6837   -0.4134    0.0000 CT        1 <0>         0.0000
     15 O5          2.6041   -0.8267    0.0000 OH        1 <0>         0.0000
     16 C11        -2.5961    0.4187    0.0000 CT        1 <0>         0.0000
     17 C12         0.9697   -0.8267    0.0000 CT        1 <0>         0.0000
     18 C13         1.6837   -0.4134    0.0000 CT        1 <0>         0.0000
     19 C14         0.9697   -0.8267    0.0000 CT        1 <0>         0.0000
     20 C15         1.6837   -0.4134    0.0000 CT        1 <0>         0.0000
     21 C16         0.9697   -0.8267    0.0000 CT        1 <0>         0.0000
     22 C17         1.6837   -0.4134    0.0000 CT        1 <0>         0.0000
     23 C18         0.9697   -0.8267    0.0000 CT        1 <0>         0.0000
     24 C19         1.6837   -0.4134    0.0000 CT        1 <0>         0.0000
     25 H1          0.9752    0.8261    0.0000 HC        1 <0>         0.0000
     26 H2          0.9752    0.8261    0.0000 HC        1 <0>         0.0000
     27 H3          0.9752    0.8261    0.0000 HC        1 <0>         0.0000
     28 H4         -2.6041   -0.4141    0.0000 H1        1 <0>         0.0000
     29 H5         -2.6041   -0.4141    0.0000 H1        1 <0>         0.0000
     30 H6         -2.6041   -0.4141    0.0000 H1        1 <0>         0.0000
     31 H7          0.9697   -0.8267    0.0000 HC        1 <0>         0.0000
     32 H8          0.9697   -0.8267    0.0000 HC        1 <0>         0.0000
     33 H9          1.6837   -0.4134    0.0000 HC        1 <0>         0.0000
     34 H10         1.6837   -0.4134    0.0000 HC        1 <0>         0.0000
     35 H11         2.6041   -0.8267    0.0000 HO        1 <0>         0.0000
     36 H12        -2.5961    0.4187    0.0000 H1        1 <0>         0.0000
     37 H13        -2.5961    0.4187    0.0000 H1        1 <0>         0.0000
     38 H14        -2.5961    0.4187    0.0000 H1        1 <0>         0.0000
     39 H15         0.9697   -0.8267    0.0000 HC        1 <0>         0.0000
     40 H16         0.9697   -0.8267    0.0000 HC        1 <0>         0.0000
     41 H17         1.6837   -0.4134    0.0000 HC        1 <0>         0.0000
     42 H18         1.6837   -0.4134    0.0000 HC        1 <0>         0.0000
     43 H19         0.9697   -0.8267    0.0000 HC        1 <0>         0.0000
     44 H20         0.9697   -0.8267    0.0000 HC        1 <0>         0.0000
     45 H21         1.6837   -0.4134    0.0000 HC        1 <0>         0.0000
     46 H22         1.6837   -0.4134    0.0000 HC        1 <0>         0.0000
     47 H23         0.9697   -0.8267    0.0000 HC        1 <0>         0.0000
     48 H24         0.9697   -0.8267    0.0000 HC        1 <0>         0.0000
     49 H25         1.6837   -0.4134    0.0000 HC        1 <0>         0.0000
     50 H26         1.6837   -0.4134    0.0000 HC        1 <0>         0.0000
     51 H27         0.9697   -0.8267    0.0000 HC        1 <0>         0.0000
     52 H28         0.9697   -0.8267    0.0000 HC        1 <0>         0.0000
     53 H29         1.6837   -0.4134    0.0000 H1        1 <0>         0.0000
     54 H30         1.6837   -0.4134    0.0000 H1        1 <0>         0.0000
@<TRIPOS>BOND
     1   11   12 1
     2    1    6 1
     3    6    7 2
     4    1    2 2
     5    3    8 2
     6    2    3 1
     7    5    9 1
     8    3    4 1
     9    1   10 1
    10    4    5 2
    11    2   11 1
    12    5    6 1
    13   10   16 1
    14    4   13 1
    15   13   14 1
    16   14   17 1
    17   17   18 1
    18   18   19 1
    19   19   20 1
    20   20   21 1
    21   21   22 1
    22   22   23 1
    23   23   24 1
    24   15   24 1
    25    9   25 1
    26    9   26 1
    27    9   27 1
    28   12   28 1
    29   12   29 1
    30   12   30 1
    31   13   31 1
    32   13   32 1
    33   14   33 1
    34   14   34 1
    35   15   35 1
    36   16   36 1
    37   16   37 1
    38   16   38 1
    39   17   39 1
    40   17   40 1
    41   18   41 1
    42   18   42 1
    43   19   43 1
    44   19   44 1
    45   20   45 1
    46   20   46 1
    47   21   47 1
    48   21   48 1
    49   22   49 1
    50   22   50 1
    51   23   51 1
    52   23   52 1
    53   24   53 1
    54   24   54 1
@<TRIPOS>MOLECULE
*****
   24    24     0     0     0
SMALL
NO_CHARGES

@<TRIPOS>ATOM
      1 O1         17.1758   -3.7812    0.0000 OS        1 <0>         0.0000
      2 O2         15.7468   -4.6062    0.0000 OH        1 <0>         0.0000
      3 C1         17.8902   -5.8437    0.0000 CA        1 <0>         0.0000
      4 C2         18.6047   -6.2563    0.0000 CT        1 <0>         0.0000
      5 C3         17.8902   -5.0187    0.0000 CA        1 <0>         0.0000
      6 C4         17.1758   -4.6062    0.0000 CA        1 <0>         0.0000
      7 C5         17.1758   -6.2563    0.0000 CA        1 <0>         0.0000
      8 C6         16.4613   -5.0187    0.0000 CA        1 <0>         0.0000
      9 C7         16.4613   -5.8437    0.0000 CA        1 <0>         0.0000
     10 C8         18.6047   -7.0813    0.0000 CM        1 <0>         0.0000
     11 C9         17.8902   -3.3687    0.0000 CT        1 <0>         0.0000
     12 C10        19.3192   -7.4938    0.0000 CM        1 <0>         0.0000
     13 H1         15.7468   -4.6062    0.0000 HO        1 <0>         0.0000
     14 H2         18.6047   -6.2563    0.0000 HC        1 <0>         0.0000
     15 H3         18.6047   -6.2563    0.0000 HC        1 <0>         0.0000
     16 H4         17.8902   -5.0187    0.0000 HA        1 <0>         0.0000
     17 H5         17.1758   -6.2563    0.0000 HA        1 <0>         0.0000
     18 H6         16.4613   -5.8437    0.0000 HA        1 <0>         0.0000
     19 H7         18.6047   -7.0813    0.0000 HA        1 <0>         0.0000
     20 H8         17.8902   -3.3687    0.0000 H1        1 <0>         0.0000
     21 H9         17.8902   -3.3687    0.0000 H1        1 <0>         0.0000
     22 H10        17.8902   -3.3687    0.0000 H1        1 <0>         0.0000
     23 H11        19.3192   -7.4938    0.0000 HA        1 <0>         0.0000
     24 H12        19.3192   -7.4938    0.0000 HA        1 <0>         0.0000
@<TRIPOS>BOND
     1    1    6 1
     2    1   11 1
     3    2    8 1
     4    3    4 1
     5    3    5 ar
     6    3    7 ar
     7    4   10 1
     8    5    6 ar
     9    6    8 ar
    10    7    9 ar
    11    8    9 ar
    12   10   12 2
    13    2   13 1
    14    4   14 1
    15    4   15 1
    16    5   16 1
    17    7   17 1
    18    9   18 1
    19   10   19 1
    20   11   20 1
    21   11   21 1
    22   11   22 1
    23   12   23 1
    24   12   24 1
@<TRIPOS>MOLECULE
*****
   28    29     0     0     0
SMALL
NO_CHARGES

@<TRIPOS>ATOM
      1 C1          0.0000    3.3000    0.0000 CA        1 <0>         0.0000
      2 C2          6.4302    1.2375    0.0000 CA        1 <0>         0.0000
      3 C3          0.0000    2.4750    0.0000 CA        1 <0>         0.0000
      4 C4          0.7145    3.7125    0.0000 CA        1 <0>         0.0000
      5 C5          6.4302    2.0625    0.0000 CA        1 <0>         0.0000
      6 C6          5.7158    0.8250    0.0000 CA        1 <0>         0.0000
      7 C7          0.7145    2.0625    0.0000 CA        1 <0>         0.0000
      8 C8          1.4289    3.3000    0.0000 CA        1 <0>         0.0000
      9 C9          5.7158    2.4750    0.0000 CA        1 <0>         0.0000
     10 C10         5.0013    1.2375    0.0000 CA        1 <0>         0.0000
     11 C11         1.4289    2.4750    0.0000 CA        1 <0>         0.0000
     12 C12         5.0013    2.0625    0.0000 CA        1 <0>         0.0000
     13 C13         2.1434    2.0625    0.0000 C         1 <0>         0.0000
     14 C14         4.2868    2.4750    0.0000 C         1 <0>         0.0000
     15 O1          2.1434    1.2375    0.0000 O         1 <0>         0.0000
     16 O2          4.2868    3.3000    0.0000 O         1 <0>         0.0000
     17 O3          2.8579    2.4750    0.0000 OS        1 <0>         0.0000
     18 O4          3.5724    2.0625    0.0000 OS        1 <0>         0.0000
     19 H1          0.0000    3.3000    0.0000 HA        1 <0>         0.0000
     20 H2          6.4302    1.2375    0.0000 HA        1 <0>         0.0000
     21 H3          0.0000    2.4750    0.0000 HA        1 <0>         0.0000
     22 H4          0.7145    3.7125    0.0000 HA        1 <0>         0.0000
     23 H5          6.4302    2.0625    0.0000 HA        1 <0>         0.0000
     24 H6          5.7158    0.8250    0.0000 HA        1 <0>         0.0000
     25 H7          0.7145    2.0625    0.0000 HA        1 <0>         0.0000
     26 H8          1.4289    3.3000    0.0000 HA        1 <0>         0.0000
     27 H9          5.7158    2.4750    0.0000 HA        1 <0>         0.0000
     28 H10         5.0013    1.2375    0.0000 HA        1 <0>         0.0000
@<TRIPOS>BOND
     1    1    3 ar
     2    1    4 ar
     3    2    5 ar
     4    2    6 ar
     5    3    7 ar
     6    4    8 ar
     7    5    9 ar
     8    6   10 ar
     9    7   11 ar
    10    8   11 ar
    11    9   12 ar
    12   10   12 ar
    13   11   13 1
    14   12   14 1
    15   13   15 2
    16   14   16 2
    17   13   17 1
    18   14   18 1
    19   17   18 1
    20    1   19 1
    21    2   20 1
    22    3   21 1
    23    4   22 1
    24    5   23 1
    25    6   24 1
    26    7   25 1
    27    8   26 1
    28    9   27 1
    29   10   28 1
@<TRIPOS>MOLECULE
*****
   21    21     0     0     0
SMALL
NO_CHARGES

@<TRIPOS>ATOM
      1 C1          2.1434   -0.4125    0.0000 CT        1 <0>         0.0000
      2 C2          0.7145    2.0625    0.0000 CT        1 <0>         0.0000
      3 C3         -0.7145   -0.4125    0.0000 CT        1 <0>         0.0000
      4 C4          1.4289    0.0000    0.0000 CT        1 <0>         0.0000
      5 C5          0.7145    1.2375    0.0000 CT        1 <0>         0.0000
      6 C6          0.0000    0.0000    0.0000 CT        1 <0>         0.0000
      7 O1          1.4289    0.8250    0.0000 OS        1 <0>         0.0000
      8 O2          0.7145   -0.4125    0.0000 OS        1 <0>         0.0000
      9 O3          0.0000    0.8250    0.0000 OS        1 <0>         0.0000
     10 H1          2.1434   -0.4125    0.0000 HC        1 <0>         0.0000
     11 H2          2.1434   -0.4125    0.0000 HC        1 <0>         0.0000
     12 H3          2.1434   -0.4125    0.0000 HC        1 <0>         0.0000
     13 H4          0.7145    2.0625    0.0000 HC        1 <0>         0.0000
     14 H5          0.7145    2.0625    0.0000 HC        1 <0>         0.0000
     15 H6          0.7145    2.0625    0.0000 HC        1 <0>         0.0000
     16 H7         -0.7145   -0.4125    0.0000 HC        1 <0>         0.0000
     17 H8         -0.7145   -0.4125    0.0000 HC        1 <0>         0.0000
     18 H9         -0.7145   -0.4125    0.0000 HC        1 <0>         0.0000
     19 H10         1.4289    0.0000    0.0000 H2        1 <0>         0.0000
     20 H11         0.7145    1.2375    0.0000 H2        1 <0>         0.0000
     21 H12         0.0000    0.0000    0.0000 H2        1 <0>         0.0000
@<TRIPOS>BOND
     1    1    4 1
     2    2    5 1
     3    3    6 1
     4    4    7 1
     5    5    7 1
     6    4    8 1
     7    6    8 1
     8    5    9 1
     9    6    9 1
    10    1   10 1
    11    1   11 1
    12    1   12 1
    13    2   13 1
    14    2   14 1
    15    2   15 1
    16    3   16 1
    17    3   17 1
    18    3   18 1
    19    4   19 1
    20    5   20 1
    21    6   21 1
@<TRIPOS>MOLECULE
*****
   35    36     0     0     0
SMALL
NO_CHARGES

@<TRIPOS>ATOM
      1 C1         -1.8551    0.0000    0.0000 CA        1 <0>         0.0000
      2 C2         -1.8551   -0.8250    0.0000 CA        1 <0>         0.0000
      3 C3         -1.1405   -1.2376    0.0000 CA        1 <0>         0.0000
      4 C4         -0.4260   -0.8250    0.0000 CA        1 <0>         0.0000
      5 C5         -0.4260    0.0000    0.0000 CA        1 <0>         0.0000
      6 C6         -1.1405    0.4126    0.0000 CA        1 <0>         0.0000
      7 O1         -2.6398    0.2549    0.0000 OS        1 <0>         0.0000
      8 C7         -3.1248   -0.4124    0.0000 CT        1 <0>         0.0000
      9 O2         -2.6398   -1.0799    0.0000 OS        1 <0>         0.0000
     10 C8          0.2995    0.4191    0.0000 CM        1 <0>         0.0000
     11 C9          1.0098    0.0090    0.0000 CM        1 <0>         0.0000
     12 C10         1.7066    0.4114    0.0000 CT        1 <0>         0.0000
     13 C11         2.4103    0.0052    0.0000 CT        1 <0>         0.0000
     14 O3          1.7066    1.2376    0.0000 OH        1 <0>         0.0000
     15 C12         3.1248   -0.4072    0.0000 CT        1 <0>         0.0000
     16 C13         1.9916   -0.7202    0.0000 CT        1 <0>         0.0000
     17 C14         2.8163    0.7089    0.0000 CT        1 <0>         0.0000
     18 H1         -1.1405   -1.2376    0.0000 HA        1 <0>         0.0000
     19 H2         -0.4260   -0.8250    0.0000 HA        1 <0>         0.0000
     20 H3         -1.1405    0.4126    0.0000 HA        1 <0>         0.0000
     21 H4         -3.1248   -0.4124    0.0000 H2        1 <0>         0.0000
     22 H5         -3.1248   -0.4124    0.0000 H2        1 <0>         0.0000
     23 H6          0.2995    0.4191    0.0000 HA        1 <0>         0.0000
     24 H7          1.0098    0.0090    0.0000 HA        1 <0>         0.0000
     25 H8          1.7066    0.4114    0.0000 H1        1 <0>         0.0000
     26 H9          1.7066    1.2376    0.0000 HO        1 <0>         0.0000
     27 H10         3.1248   -0.4072    0.0000 HC        1 <0>         0.0000
     28 H11         3.1248   -0.4072    0.0000 HC        1 <0>         0.0000
     29 H12         3.1248   -0.4072    0.0000 HC        1 <0>         0.0000
     30 H13         1.9916   -0.7202    0.0000 HC        1 <0>         0.0000
     31 H14         1.9916   -0.7202    0.0000 HC        1 <0>         0.0000
     32 H15         1.9916   -0.7202    0.0000 HC        1 <0>         0.0000
     33 H16         2.8163    0.7089    0.0000 HC        1 <0>         0.0000
     34 H17         2.8163    0.7089    0.0000 HC        1 <0>         0.0000
     35 H18         2.8163    0.7089    0.0000 HC        1 <0>         0.0000
@<TRIPOS>BOND
     1    1    2 ar
     2    2    3 ar
     3    3    4 ar
     4    4    5 ar
     5    5    6 ar
     6    1    6 ar
     7    1    7 1
     8    7    8 1
     9    8    9 1
    10    2    9 1
    11    5   10 1
    12   10   11 2
    13   11   12 1
    14   12   13 1
    15   12   14 1
    16   13   15 1
    17   13   16 1
    18   13   17 1
    19    3   18 1
    20    4   19 1
    21    6   20 1
    22    8   21 1
    23    8   22 1
    24   10   23 1
    25   11   24 1
    26   12   25 1
    27   14   26 1
    28   15   27 1
    29   15   28 1
    30   15   29 1
    31   16   30 1
    32   16   31 1
    33   16   32 1
    34   17   33 1
    35   17   34 1
    36   17   35 1
@<TRIPOS>MOLECULE
*****
   57    60     0     0     0
SMALL
NO_CHARGES

@<TRIPOS>ATOM
      1 C1          2.1198    1.2047    0.0000 CT        1 <0>         0.0000
      2 C2          1.4044    0.8015    0.0000 CT        1 <0>         0.0000
      3 C3          2.8284    0.7944    0.0000 CT        1 <0>         0.0000
      4 C4          2.8284    1.6222    0.0000 CT        1 <0>         0.0000
      5 C5          2.1551    2.0325    0.0000 C         1 <0>         0.0000
      6 C6          1.4395   -0.0228    0.0000 CT        1 <0>         0.0000
      7 C7          0.6993    1.2153    0.0000 CT        1 <0>         0.0000
      8 C8          1.3939    1.6256    0.0000 CT        1 <0>         0.0000
      9 C9          2.8214   -0.0298    0.0000 CT        1 <0>         0.0000
     10 C10         0.6853   -0.4331    0.0000 CT        1 <0>         0.0000
     11 C11        -0.0196    0.8119    0.0000 CT        1 <0>         0.0000
     12 C12        -0.0266   -0.0122    0.0000 CT        1 <0>         0.0000
     13 C13         0.6853   -1.2574    0.0000 CM        1 <0>         0.0000
     14 C14        -0.7422   -0.4227    0.0000 CT        1 <0>         0.0000
     15 C15        -0.0336   -1.6678    0.0000 CM        1 <0>         0.0000
     16 C16        -0.7456   -1.2504    0.0000 CM        1 <0>         0.0000
     17 C17        -1.4541   -0.0088    0.0000 CT        1 <0>         0.0000
     18 C18        -0.7069    0.4016    0.0000 CT        1 <0>         0.0000
     19 C19        -0.0406   -2.4921    0.0000 CT        1 <0>         0.0000
     20 C20        -1.4541   -1.6678    0.0000 CM        1 <0>         0.0000
     21 C21        -2.1731   -0.4227    0.0000 CT        1 <0>         0.0000
     22 C22        -2.1731   -1.2504    0.0000 C         1 <0>         0.0000
     23 O1         -2.8887   -1.6608    0.0000 O         1 <0>         0.0000
     24 H1          1.4325   -0.8436    0.0000 HC        1 <0>         0.0000
     25 H2          0.6783    0.3980    0.0000 HC        1 <0>         0.0000
     26 H3         -0.0336   -0.8400    0.0000 HC        1 <0>         0.0000
     27 O2          2.8887    2.4155    0.0000 O         1 <0>         0.0000
     28 C23         1.4323    2.4921    0.0000 CT        1 <0>         0.0000
     29 H4          2.8284    0.7944    0.0000 HC        1 <0>         0.0000
     30 H5          2.8284    0.7944    0.0000 HC        1 <0>         0.0000
     31 H6          2.8284    1.6222    0.0000 HC        1 <0>         0.0000
     32 H7          2.8284    1.6222    0.0000 HC        1 <0>         0.0000
     33 H8          2.8284    1.6222    0.0000 HC        1 <0>         0.0000
     34 H9          0.6993    1.2153    0.0000 HC        1 <0>         0.0000
     35 H10         0.6993    1.2153    0.0000 HC        1 <0>         0.0000
     36 H11         1.3939    1.6256    0.0000 HC        1 <0>         0.0000
     37 H12         1.3939    1.6256    0.0000 HC        1 <0>         0.0000
     38 H13         1.3939    1.6256    0.0000 HC        1 <0>         0.0000
     39 H14         2.8214   -0.0298    0.0000 HC        1 <0>         0.0000
     40 H15         2.8214   -0.0298    0.0000 HC        1 <0>         0.0000
     41 H16        -0.0196    0.8119    0.0000 HC        1 <0>         0.0000
     42 H17        -0.0196    0.8119    0.0000 HC        1 <0>         0.0000
     43 H18         0.6853   -1.2574    0.0000 HA        1 <0>         0.0000
     44 H19        -1.4541   -0.0088    0.0000 HC        1 <0>         0.0000
     45 H20        -1.4541   -0.0088    0.0000 HC        1 <0>         0.0000
     46 H21        -0.7069    0.4016    0.0000 HC        1 <0>         0.0000
     47 H22        -0.7069    0.4016    0.0000 HC        1 <0>         0.0000
     48 H23        -0.7069    0.4016    0.0000 HC        1 <0>         0.0000
     49 H24        -0.0406   -2.4921    0.0000 HC        1 <0>         0.0000
     50 H25        -0.0406   -2.4921    0.0000 HC        1 <0>         0.0000
     51 H26        -0.0406   -2.4921    0.0000 HC        1 <0>         0.0000
     52 H27        -1.4541   -1.6678    0.0000 HA        1 <0>         0.0000
     53 H28        -2.1731   -0.4227    0.0000 HC        1 <0>         0.0000
     54 H29        -2.1731   -0.4227    0.0000 HC        1 <0>         0.0000
     55 H30         1.4323    2.4921    0.0000 HC        1 <0>         0.0000
     56 H31         1.4323    2.4921    0.0000 HC        1 <0>         0.0000
     57 H32         1.4323    2.4921    0.0000 HC        1 <0>         0.0000
@<TRIPOS>BOND
     1    1    2 1
     2    1    3 1
     3    1    4 1
     4    1    5 1
     5    2    6 1
     6    2    7 1
     7    2    8 1
     8    3    9 1
     9    6   10 1
    10    7   11 1
    11   10   12 1
    12   10   13 1
    13   12   14 1
    14   13   15 2
    15   14   16 1
    16   14   17 1
    17   14   18 1
    18   15   19 1
    19   16   20 2
    20   17   21 1
    21   20   22 1
    22   22   23 2
    23    6    9 1
    24   11   12 1
    25   15   16 1
    26   21   22 1
    27    6   24 1
    28   10   25 1
    29   12   26 1
    30    5   27 2
    31    5   28 1
    32    3   29 1
    33    3   30 1
    34    4   31 1
    35    4   32 1
    36    4   33 1
    37    7   34 1
    38    7   35 1
    39    8   36 1
    40    8   37 1
    41    8   38 1
    42    9   39 1
    43    9   40 1
    44   11   41 1
    45   11   42 1
    46   13   43 1
    47   17   44 1
    48   17   45 1
    49   18   46 1
    50   18   47 1
    51   18   48 1
    52   19   49 1
    53   19   50 1
    54   19   51 1
    55   20   52 1
    56   21   53 1
    57   21   54 1
    58   28   55 1
    59   28   56 1
    60   28   57 1
@<TRIPOS>MOLECULE
977
    2     1     0     0     0
SMALL
NO_CHARGES

@<TRIPOS>ATOM
      1 O1          1.6500    0.0000    0.0000 Ou        1 <0>         0.0000
      2 O2          2.4750    0.0000    0.0000 Ou        1 <0>         0.0000
@<TRIPOS>BOND
     1    1    2 2
@<TRIPOS>MOLECULE
*****
    3     2     0     0     0
SMALL
NO_CHARGES

@<TRIPOS>ATOM
      1 O1         25.6983  -15.0132    0.0000 OW        1 <0>         0.0000
      2 H1         25.6983  -15.0132    0.0000 HW        1 <0>         0.0000
      3 H2         25.6983  -15.0132    0.0000 HW        1 <0>         0.0000
@<TRIPOS>BOND
     1    1    2 1
     2    1    3 1
@<TRIPOS>MOLECULE
*****
    3     2     0     0     0
SMALL
NO_CHARGES

@<TRIPOS>ATOM
      1 C1         17.9274  -10.8152    0.0000 C2        1 <0>         0.0000
      2 O1         17.1024  -10.8152    0.0000 Ou        1 <0>         0.0000
      3 O2         18.7524  -10.8152    0.0000 Ou        1 <0>         0.0000
@<TRIPOS>BOND
     1    1    2 2
     2    1    3 2
@<TRIPOS>MOLECULE
*****
   63    63     0     0     0
SMALL
NO_CHARGES

@<TRIPOS>ATOM
      1 C1         -2.5803   -0.4124    0.0000 CT        1 <0>         0.0000
      2 C2         -2.5803    0.4125    0.0000 CT        1 <0>         0.0000
      3 C3         -3.3649    0.6674    0.0000 C         1 <0>         0.0000
      4 C4         -3.8498    0.0000    0.0000 CT        1 <0>         0.0000
      5 C5         -3.3649   -0.6673    0.0000 CT        1 <0>         0.0000
      6 O1         -3.6176    1.4450    0.0000 O         1 <0>         0.0000
      7 O2         -3.6176   -1.4450    0.0000 OH        1 <0>         0.0000
      8 C6         -1.8658    0.8250    0.0000 CT        1 <0>         0.0000
      9 C7         -1.1513    0.4125    0.0000 CT        1 <0>         0.0000
     10 C8         -0.4369    0.8250    0.0000 CT        1 <0>         0.0000
     11 C9          0.2775    0.4125    0.0000 CT        1 <0>         0.0000
     12 C10         0.9920    0.8250    0.0000 CM        1 <0>         0.0000
     13 C11         1.7064    0.4125    0.0000 CM        1 <0>         0.0000
     14 C12         2.4209    0.8250    0.0000 C         1 <0>         0.0000
     15 O3          3.1354    0.4125    0.0000 OH        1 <0>         0.0000
     16 C13        -1.8658   -0.8249    0.0000 CM        1 <0>         0.0000
     17 C14        -1.1513   -0.4124    0.0000 CM        1 <0>         0.0000
     18 C15        -0.4369   -0.8249    0.0000 CT        1 <0>         0.0000
     19 C16         0.2775   -0.4124    0.0000 CT        1 <0>         0.0000
     20 C17         0.9920   -0.8249    0.0000 CT        1 <0>         0.0000
     21 C18         1.7064   -0.4124    0.0000 CT        1 <0>         0.0000
     22 C19         2.4209   -0.8249    0.0000 CT        1 <0>         0.0000
     23 C20         3.1354   -0.4124    0.0000 CT        1 <0>         0.0000
     24 C21         3.8498   -0.8249    0.0000 CT        1 <0>         0.0000
     25 O4          2.4209    1.6499    0.0000 O         1 <0>         0.0000
     26 O5         -0.4369   -1.6499    0.0000 OH        1 <0>         0.0000
     27 C22         0.9920   -1.6497    0.0000 CT        1 <0>         0.0000
     28 H1         -2.5803   -0.4124    0.0000 HC        1 <0>         0.0000
     29 H2         -2.5803    0.4125    0.0000 HC        1 <0>         0.0000
     30 H3         -3.8498    0.0000    0.0000 HC        1 <0>         0.0000
     31 H4         -3.8498    0.0000    0.0000 HC        1 <0>         0.0000
     32 H5         -3.3649   -0.6673    0.0000 H1        1 <0>         0.0000
     33 H6         -3.6176   -1.4450    0.0000 HO        1 <0>         0.0000
     34 H7         -1.8658    0.8250    0.0000 HC        1 <0>         0.0000
     35 H8         -1.8658    0.8250    0.0000 HC        1 <0>         0.0000
     36 H9         -1.1513    0.4125    0.0000 HC        1 <0>         0.0000
     37 H10        -1.1513    0.4125    0.0000 HC        1 <0>         0.0000
     38 H11        -0.4369    0.8250    0.0000 HC        1 <0>         0.0000
     39 H12        -0.4369    0.8250    0.0000 HC        1 <0>         0.0000
     40 H13         0.2775    0.4125    0.0000 HC        1 <0>         0.0000
     41 H14         0.2775    0.4125    0.0000 HC        1 <0>         0.0000
     42 H15         0.9920    0.8250    0.0000 HA        1 <0>         0.0000
     43 H16         1.7064    0.4125    0.0000 HA        1 <0>         0.0000
     44 H17         3.1354    0.4125    0.0000 HO        1 <0>         0.0000
     45 H18        -1.8658   -0.8249    0.0000 HA        1 <0>         0.0000
     46 H19        -1.1513   -0.4124    0.0000 HA        1 <0>         0.0000
     47 H20        -0.4369   -0.8249    0.0000 H1        1 <0>         0.0000
     48 H21         0.2775   -0.4124    0.0000 HC        1 <0>         0.0000
     49 H22         0.2775   -0.4124    0.0000 HC        1 <0>         0.0000
     50 H23         0.9920   -0.8249    0.0000 HC        1 <0>         0.0000
     51 H24         1.7064   -0.4124    0.0000 HC        1 <0>         0.0000
     52 H25         1.7064   -0.4124    0.0000 HC        1 <0>         0.0000
     53 H26         2.4209   -0.8249    0.0000 HC        1 <0>         0.0000
     54 H27         2.4209   -0.8249    0.0000 HC        1 <0>         0.0000
     55 H28         3.1354   -0.4124    0.0000 HC        1 <0>         0.0000
     56 H29         3.1354   -0.4124    0.0000 HC        1 <0>         0.0000
     57 H30         3.8498   -0.8249    0.0000 HC        1 <0>         0.0000
     58 H31         3.8498   -0.8249    0.0000 HC        1 <0>         0.0000
     59 H32         3.8498   -0.8249    0.0000 HC        1 <0>         0.0000
     60 H33        -0.4369   -1.6499    0.0000 HO        1 <0>         0.0000
     61 H34         0.9920   -1.6497    0.0000 HC        1 <0>         0.0000
     62 H35         0.9920   -1.6497    0.0000 HC        1 <0>         0.0000
     63 H36         0.9920   -1.6497    0.0000 HC        1 <0>         0.0000
@<TRIPOS>BOND
     1    1    2 1
     2    2    3 1
     3    3    4 1
     4    4    5 1
     5    1    5 1
     6    3    6 2
     7    5    7 1
     8    2    8 1
     9    8    9 1
    10    9   10 1
    11   10   11 1
    12   11   12 1
    13   12   13 2
    14   13   14 1
    15   14   15 1
    16    1   16 1
    17   16   17 2
    18   17   18 1
    19   18   19 1
    20   19   20 1
    21   20   21 1
    22   21   22 1
    23   22   23 1
    24   23   24 1
    25   14   25 2
    26   18   26 1
    27   20   27 1
    28    1   28 1
    29    2   29 1
    30    4   30 1
    31    4   31 1
    32    5   32 1
    33    7   33 1
    34    8   34 1
    35    8   35 1
    36    9   36 1
    37    9   37 1
    38   10   38 1
    39   10   39 1
    40   11   40 1
    41   11   41 1
    42   12   42 1
    43   13   43 1
    44   15   44 1
    45   16   45 1
    46   17   46 1
    47   18   47 1
    48   19   48 1
    49   19   49 1
    50   20   50 1
    51   21   51 1
    52   21   52 1
    53   22   53 1
    54   22   54 1
    55   23   55 1
    56   23   56 1
    57   24   57 1
    58   24   58 1
    59   24   59 1
    60   26   60 1
    61   27   61 1
    62   27   62 1
    63   27   63 1
@<TRIPOS>MOLECULE
*****
   36    37     0     0     0
SMALL
NO_CHARGES

@<TRIPOS>ATOM
      1 C1         -4.2868    5.5286    0.0000 CT        1 <0>         0.0000
      2 C2         -0.3020    2.1965    0.0000 CT        1 <0>         0.0000
      3 C3         -0.0470    2.9812    0.0000 CT        1 <0>         0.0000
      4 C4         -1.1270    2.1965    0.0000 CT        1 <0>         0.0000
      5 C5         -1.4289    5.5286    0.0000 CA        1 <0>         0.0000
      6 C6         -2.1434    4.2911    0.0000 CA        1 <0>         0.0000
      7 C7         -2.1434    5.9411    0.0000 CA        1 <0>         0.0000
      8 C8         -2.8579    4.7036    0.0000 CA        1 <0>         0.0000
      9 C9         -0.7145    4.2911    0.0000 CT        1 <0>         0.0000
     10 C10        -3.5724    5.9411    0.0000 CT        1 <0>         0.0000
     11 C11        -1.4289    4.7036    0.0000 CA        1 <0>         0.0000
     12 C12        -2.8579    5.5286    0.0000 CA        1 <0>         0.0000
     13 C13        -0.7145    3.4661    0.0000 CT        1 <0>         0.0000
     14 C14        -1.3819    2.9812    0.0000 C         1 <0>         0.0000
     15 C15        -3.5724    6.7661    0.0000 C         1 <0>         0.0000
     16 O1         -2.1665    3.2361    0.0000 O         1 <0>         0.0000
     17 O2         -4.2868    7.1786    0.0000 O         1 <0>         0.0000
     18 O3         -2.8579    7.1786    0.0000 OH        1 <0>         0.0000
     19 H1         -4.2868    5.5286    0.0000 HC        1 <0>         0.0000
     20 H2         -4.2868    5.5286    0.0000 HC        1 <0>         0.0000
     21 H3         -4.2868    5.5286    0.0000 HC        1 <0>         0.0000
     22 H4         -0.3020    2.1965    0.0000 HC        1 <0>         0.0000
     23 H5         -0.3020    2.1965    0.0000 HC        1 <0>         0.0000
     24 H6         -0.0470    2.9812    0.0000 HC        1 <0>         0.0000
     25 H7         -0.0470    2.9812    0.0000 HC        1 <0>         0.0000
     26 H8         -1.1270    2.1965    0.0000 HC        1 <0>         0.0000
     27 H9         -1.1270    2.1965    0.0000 HC        1 <0>         0.0000
     28 H10        -1.4289    5.5286    0.0000 HA        1 <0>         0.0000
     29 H11        -2.1434    4.2911    0.0000 HA        1 <0>         0.0000
     30 H12        -2.1434    5.9411    0.0000 HA        1 <0>         0.0000
     31 H13        -2.8579    4.7036    0.0000 HA        1 <0>         0.0000
     32 H14        -0.7145    4.2911    0.0000 HC        1 <0>         0.0000
     33 H15        -0.7145    4.2911    0.0000 HC        1 <0>         0.0000
     34 H16        -3.5724    5.9411    0.0000 HC        1 <0>         0.0000
     35 H17        -0.7145    3.4661    0.0000 HC        1 <0>         0.0000
     36 H18        -2.8579    7.1786    0.0000 HO        1 <0>         0.0000
@<TRIPOS>BOND
     1    2    3 1
     2    2    4 1
     3    5    7 ar
     4    6    8 ar
     5    1   10 1
     6    5   11 ar
     7    6   11 ar
     8    9   11 1
     9    7   12 ar
    10    8   12 ar
    11   10   12 1
    12    3   13 1
    13    9   13 1
    14    4   14 1
    15   13   14 1
    16   10   15 1
    17   14   16 2
    18   15   17 2
    19   15   18 1
    20    1   19 1
    21    1   20 1
    22    1   21 1
    23    2   22 1
    24    2   23 1
    25    3   24 1
    26    3   25 1
    27    4   26 1
    28    4   27 1
    29    5   28 1
    30    6   29 1
    31    7   30 1
    32    8   31 1
    33    9   32 1
    34    9   33 1
    35   10   34 1
    36   13   35 1
    37   18   36 1
@<TRIPOS>MOLECULE
*****
   33    33     0     0     0
SMALL
NO_CHARGES

@<TRIPOS>ATOM
      1 C1         -0.0000   -2.4750    0.0000 CT        1 <0>         0.0000
      2 C2         -0.7145   -1.2375    0.0000 CT        1 <0>         0.0000
      3 C3         -0.0000    2.4750    0.0000 CT        1 <0>         0.0000
      4 C4          1.4289   -0.0000    0.0000 CA        1 <0>         0.0000
      5 C5          0.0000   -0.0000    0.0000 CA        1 <0>         0.0000
      6 C6          1.4289    0.8250    0.0000 CA        1 <0>         0.0000
      7 C7          0.0000    0.8250    0.0000 CA        1 <0>         0.0000
      8 C8          0.7145   -1.2375    0.0000 CT        1 <0>         0.0000
      9 C9         -0.0000   -1.6500    0.0000 CT        1 <0>         0.0000
     10 C10         0.7145    2.0625    0.0000 CT        1 <0>         0.0000
     11 C11         0.7145   -0.4125    0.0000 CA        1 <0>         0.0000
     12 C12         0.7145    1.2375    0.0000 CA        1 <0>         0.0000
     13 C13         1.4289    2.4750    0.0000 C         1 <0>         0.0000
     14 O1          1.4289    3.3000    0.0000 O         1 <0>         0.0000
     15 O2          2.1434    2.0625    0.0000 OH        1 <0>         0.0000
     16 H1          0.0000    1.6500    0.0000 HC        1 <0>         0.0000
     17 H2         -0.0000   -2.4750    0.0000 HC        1 <0>         0.0000
     18 H3         -0.0000   -2.4750    0.0000 HC        1 <0>         0.0000
     19 H4         -0.0000   -2.4750    0.0000 HC        1 <0>         0.0000
     20 H5         -0.7145   -1.2375    0.0000 HC        1 <0>         0.0000
     21 H6         -0.7145   -1.2375    0.0000 HC        1 <0>         0.0000
     22 H7         -0.7145   -1.2375    0.0000 HC        1 <0>         0.0000
     23 H8         -0.0000    2.4750    0.0000 HC        1 <0>         0.0000
     24 H9         -0.0000    2.4750    0.0000 HC        1 <0>         0.0000
     25 H10        -0.0000    2.4750    0.0000 HC        1 <0>         0.0000
     26 H11         1.4289   -0.0000    0.0000 HA        1 <0>         0.0000
     27 H12         0.0000   -0.0000    0.0000 HA        1 <0>         0.0000
     28 H13         1.4289    0.8250    0.0000 HA        1 <0>         0.0000
     29 H14         0.0000    0.8250    0.0000 HA        1 <0>         0.0000
     30 H15         0.7145   -1.2375    0.0000 HC        1 <0>         0.0000
     31 H16         0.7145   -1.2375    0.0000 HC        1 <0>         0.0000
     32 H17        -0.0000   -1.6500    0.0000 HC        1 <0>         0.0000
     33 H18         2.1434    2.0625    0.0000 HO        1 <0>         0.0000
@<TRIPOS>BOND
     1    4    6 ar
     2    5    7 ar
     3    1    9 1
     4    2    9 1
     5    8    9 1
     6    3   10 1
     7    4   11 ar
     8    5   11 ar
     9    8   11 1
    10    6   12 ar
    11    7   12 ar
    12   10   12 1
    13   10   13 1
    14   13   14 2
    15   13   15 1
    16   10   16 1
    17    1   17 1
    18    1   18 1
    19    1   19 1
    20    2   20 1
    21    2   21 1
    22    2   22 1
    23    3   23 1
    24    3   24 1
    25    3   25 1
    26    4   26 1
    27    5   27 1
    28    6   28 1
    29    7   29 1
    30    8   30 1
    31    8   31 1
    32    9   32 1
    33   15   33 1
@<TRIPOS>MOLECULE
*****
   33    34     0     0     0
SMALL
NO_CHARGES

@<TRIPOS>ATOM
      1 C1         -0.0000    7.4250    0.0000 CT        1 <0>         0.0000
      2 C2         -0.7145    2.0625    0.0000 CA        1 <0>         0.0000
      3 C3          0.0000    2.4750    0.0000 CA        1 <0>         0.0000
      4 C4         -1.4289    2.4750    0.0000 CA        1 <0>         0.0000
      5 C5          1.4289    4.9500    0.0000 CA        1 <0>         0.0000
      6 C6         -0.0000    3.3000    0.0000 CA        1 <0>         0.0000
      7 C7         -1.4289    3.3000    0.0000 CA        1 <0>         0.0000
      8 C8          1.4289    5.7750    0.0000 CA        1 <0>         0.0000
      9 C9          0.7145    4.5375    0.0000 CA        1 <0>         0.0000
     10 C10        -0.0000    5.7750    0.0000 CA        1 <0>         0.0000
     11 C11         0.7145    7.0125    0.0000 CT        1 <0>         0.0000
     12 C12        -0.7145    3.7125    0.0000 CA        1 <0>         0.0000
     13 C13         0.7145    6.1875    0.0000 CA        1 <0>         0.0000
     14 C14        -0.0000    4.9500    0.0000 CA        1 <0>         0.0000
     15 C15        -0.7145    4.5375    0.0000 C         1 <0>         0.0000
     16 C16         1.4289    7.4250    0.0000 C         1 <0>         0.0000
     17 O1         -1.4289    4.9500    0.0000 O         1 <0>         0.0000
     18 O2          1.4289    8.2500    0.0000 O         1 <0>         0.0000
     19 O3          2.1434    7.0125    0.0000 OH        1 <0>         0.0000
     20 H1         -0.0000    6.6000    0.0000 HC        1 <0>         0.0000
     21 H2         -0.0000    7.4250    0.0000 HC        1 <0>         0.0000
     22 H3         -0.0000    7.4250    0.0000 HC        1 <0>         0.0000
     23 H4         -0.0000    7.4250    0.0000 HC        1 <0>         0.0000
     24 H5         -0.7145    2.0625    0.0000 HA        1 <0>         0.0000
     25 H6          0.0000    2.4750    0.0000 HA        1 <0>         0.0000
     26 H7         -1.4289    2.4750    0.0000 HA        1 <0>         0.0000
     27 H8          1.4289    4.9500    0.0000 HA        1 <0>         0.0000
     28 H9         -0.0000    3.3000    0.0000 HA        1 <0>         0.0000
     29 H10        -1.4289    3.3000    0.0000 HA        1 <0>         0.0000
     30 H11         1.4289    5.7750    0.0000 HA        1 <0>         0.0000
     31 H12         0.7145    4.5375    0.0000 HA        1 <0>         0.0000
     32 H13        -0.0000    5.7750    0.0000 HA        1 <0>         0.0000
     33 H14         2.1434    7.0125    0.0000 HO        1 <0>         0.0000
@<TRIPOS>BOND
     1    2    3 ar
     2    2    4 ar
     3    3    6 ar
     4    4    7 ar
     5    5    8 ar
     6    5    9 ar
     7    1   11 1
     8    6   12 ar
     9    7   12 ar
    10    8   13 ar
    11   10   13 ar
    12   11   13 1
    13    9   14 ar
    14   10   14 ar
    15   12   15 1
    16   14   15 1
    17   11   16 1
    18   15   17 2
    19   16   18 2
    20   16   19 1
    21   11   20 1
    22    1   21 1
    23    1   22 1
    24    1   23 1
    25    2   24 1
    26    3   25 1
    27    4   26 1
    28    5   27 1
    29    6   28 1
    30    7   29 1
    31    8   30 1
    32    9   31 1
    33   10   32 1
    34   19   33 1
@<TRIPOS>MOLECULE
*****
   18    18     0     0     0
SMALL
NO_CHARGES

@<TRIPOS>ATOM
      1 C1         -0.2852    0.0000    0.0000 CA        1 <0>         0.0000
      2 C2         -1.0032   -0.4123    0.0000 CA        1 <0>         0.0000
      3 C3          0.4294   -0.4123    0.0000 CA        1 <0>         0.0000
      4 C4         -0.2852    0.8246    0.0000 CT        1 <0>         0.0000
      5 C5         -1.0032   -1.2369    0.0000 CA        1 <0>         0.0000
      6 C6          0.4294   -1.2369    0.0000 CA        1 <0>         0.0000
      7 C7          0.4329    1.2403    0.0000 C         1 <0>         0.0000
      8 C8         -0.2852   -1.6526    0.0000 CA        1 <0>         0.0000
      9 O1          0.4329    2.0615    0.0000 OH        1 <0>         0.0000
     10 O2          1.1441    0.8280    0.0000 O         1 <0>         0.0000
     11 H1         -1.0032   -0.4123    0.0000 HA        1 <0>         0.0000
     12 H2          0.4294   -0.4123    0.0000 HA        1 <0>         0.0000
     13 H3         -0.2852    0.8246    0.0000 HC        1 <0>         0.0000
     14 H4         -0.2852    0.8246    0.0000 HC        1 <0>         0.0000
     15 H5         -1.0032   -1.2369    0.0000 HA        1 <0>         0.0000
     16 H6          0.4294   -1.2369    0.0000 HA        1 <0>         0.0000
     17 H7         -0.2852   -1.6526    0.0000 HA        1 <0>         0.0000
     18 H8          0.4329    2.0615    0.0000 HO        1 <0>         0.0000
@<TRIPOS>BOND
     1    1    2 ar
     2    1    3 ar
     3    1    4 1
     4    2    5 ar
     5    3    6 ar
     6    4    7 1
     7    5    8 ar
     8    7    9 1
     9    7   10 2
    10    6    8 ar
    11    2   11 1
    12    3   12 1
    13    4   13 1
    14    4   14 1
    15    5   15 1
    16    6   16 1
    17    8   17 1
    18    9   18 1
@<TRIPOS>MOLECULE
Untitled Document-1
  153   153     0     0     0
SMALL
NO_CHARGES

@<TRIPOS>ATOM
      1 C1        -12.8605    0.2062    0.0000 C         1 <0>         0.0000
      2 C2        -12.8605   -0.6188    0.0000 CA        1 <0>         0.0000
      3 C3        -13.5749   -1.0313    0.0000 CA        1 <0>         0.0000
      4 C4        -14.2894   -0.6188    0.0000 C         1 <0>         0.0000
      5 C5        -14.2894    0.2062    0.0000 CA        1 <0>         0.0000
      6 C6        -13.5749    0.6188    0.0000 CA        1 <0>         0.0000
      7 O1        -12.1460    0.6188    0.0000 O         1 <0>         0.0000
      8 O2        -15.0039   -1.0313    0.0000 O         1 <0>         0.0000
      9 C7        -13.5749   -1.8563    0.0000 CT        1 <0>         0.0000
     10 O3        -13.5749    1.4437    0.0000 OS        1 <0>         0.0000
     11 C8        -14.2894    1.8563    0.0000 CT        1 <0>         0.0000
     12 O4        -15.0039    0.6187    0.0000 OS        1 <0>         0.0000
     13 C9        -15.7184    0.2062    0.0000 CT        1 <0>         0.0000
     14 C10       -12.1460   -1.0313    0.0000 CT        1 <0>         0.0000
     15 C11       -11.4315   -0.6188    0.0000 CM        1 <0>         0.0000
     16 C12       -10.7171   -1.0313    0.0000 CM        1 <0>         0.0000
     17 C13       -10.0026   -0.6188    0.0000 CT        1 <0>         0.0000
     18 C14        -9.2881   -1.0313    0.0000 CT        1 <0>         0.0000
     19 C15        -8.5737   -0.6188    0.0000 CM        1 <0>         0.0000
     20 C16        -7.8592   -1.0313    0.0000 CM        1 <0>         0.0000
     21 C17        -7.1447   -0.6188    0.0000 CT        1 <0>         0.0000
     22 C18        -6.4302   -1.0313    0.0000 CT        1 <0>         0.0000
     23 C19        -5.7158   -0.6188    0.0000 CM        1 <0>         0.0000
     24 C20        -5.0013   -1.0313    0.0000 CM        1 <0>         0.0000
     25 C21        -4.2868   -0.6188    0.0000 CT        1 <0>         0.0000
     26 C22        -3.5724   -1.0313    0.0000 CT        1 <0>         0.0000
     27 C23        -2.8579   -0.6188    0.0000 CM        1 <0>         0.0000
     28 C24        -2.1434   -1.0313    0.0000 CM        1 <0>         0.0000
     29 C25        -1.4289   -0.6188    0.0000 CT        1 <0>         0.0000
     30 C26        -0.7145   -1.0313    0.0000 CT        1 <0>         0.0000
     31 C27         0.0000   -0.6188    0.0000 CM        1 <0>         0.0000
     32 C28         0.7145   -1.0313    0.0000 CM        1 <0>         0.0000
     33 C29         1.4289   -0.6188    0.0000 CT        1 <0>         0.0000
     34 C30         2.1434   -1.0313    0.0000 CT        1 <0>         0.0000
     35 C31         2.8579   -0.6188    0.0000 CM        1 <0>         0.0000
     36 C32         3.5724   -1.0313    0.0000 CM        1 <0>         0.0000
     37 C33         4.2868   -0.6188    0.0000 CT        1 <0>         0.0000
     38 C34         5.0013   -1.0313    0.0000 CT        1 <0>         0.0000
     39 C35         5.7158   -0.6188    0.0000 CM        1 <0>         0.0000
     40 C36         6.4302   -1.0313    0.0000 CM        1 <0>         0.0000
     41 C37         7.1447   -0.6188    0.0000 CT        1 <0>         0.0000
     42 C38         7.8592   -1.0313    0.0000 CT        1 <0>         0.0000
     43 C39         8.5737   -0.6188    0.0000 CM        1 <0>         0.0000
     44 C40         9.2881   -1.0313    0.0000 CM        1 <0>         0.0000
     45 C41        10.0026   -0.6188    0.0000 CT        1 <0>         0.0000
     46 C42        10.7171   -1.0313    0.0000 CT        1 <0>         0.0000
     47 C43        11.4315   -0.6188    0.0000 CM        1 <0>         0.0000
     48 C44        12.1460   -1.0313    0.0000 CM        1 <0>         0.0000
     49 C45        12.8605   -0.6188    0.0000 CT        1 <0>         0.0000
     50 C46        13.5749   -1.0313    0.0000 CT        1 <0>         0.0000
     51 C47        14.2894   -0.6188    0.0000 CM        1 <0>         0.0000
     52 C48        15.0039   -1.0313    0.0000 CM        1 <0>         0.0000
     53 C49        15.7184   -0.6188    0.0000 CT        1 <0>         0.0000
     54 C50        15.0039   -1.8563    0.0000 CT        1 <0>         0.0000
     55 C51        12.1460   -1.8563    0.0000 CT        1 <0>         0.0000
     56 C52         9.2881   -1.8563    0.0000 CT        1 <0>         0.0000
     57 C53         6.4302   -1.8563    0.0000 CT        1 <0>         0.0000
     58 C54         3.5724   -1.8563    0.0000 CT        1 <0>         0.0000
     59 C55         0.7145   -1.8563    0.0000 CT        1 <0>         0.0000
     60 C56        -2.1434   -1.8563    0.0000 CT        1 <0>         0.0000
     61 C57        -5.0013   -1.8563    0.0000 CT        1 <0>         0.0000
     62 C58        -7.8592   -1.8563    0.0000 CT        1 <0>         0.0000
     63 C59       -10.7171   -1.8563    0.0000 CT        1 <0>         0.0000
     64 H1        -13.5749   -1.8563    0.0000 HC        1 <0>         0.0000
     65 H2        -13.5749   -1.8563    0.0000 HC        1 <0>         0.0000
     66 H3        -13.5749   -1.8563    0.0000 HC        1 <0>         0.0000
     67 H4        -14.2894    1.8563    0.0000 H1        1 <0>         0.0000
     68 H5        -14.2894    1.8563    0.0000 H1        1 <0>         0.0000
     69 H6        -14.2894    1.8563    0.0000 H1        1 <0>         0.0000
     70 H7        -15.7184    0.2062    0.0000 H1        1 <0>         0.0000
     71 H8        -15.7184    0.2062    0.0000 H1        1 <0>         0.0000
     72 H9        -15.7184    0.2062    0.0000 H1        1 <0>         0.0000
     73 H10       -12.1460   -1.0313    0.0000 HC        1 <0>         0.0000
     74 H11       -12.1460   -1.0313    0.0000 HC        1 <0>         0.0000
     75 H12       -11.4315   -0.6188    0.0000 HA        1 <0>         0.0000
     76 H13       -10.0026   -0.6188    0.0000 HC        1 <0>         0.0000
     77 H14       -10.0026   -0.6188    0.0000 HC        1 <0>         0.0000
     78 H15        -9.2881   -1.0313    0.0000 HC        1 <0>         0.0000
     79 H16        -9.2881   -1.0313    0.0000 HC        1 <0>         0.0000
     80 H17        -8.5737   -0.6188    0.0000 HA        1 <0>         0.0000
     81 H18        -7.1447   -0.6188    0.0000 HC        1 <0>         0.0000
     82 H19        -7.1447   -0.6188    0.0000 HC        1 <0>         0.0000
     83 H20        -6.4302   -1.0313    0.0000 HC        1 <0>         0.0000
     84 H21        -6.4302   -1.0313    0.0000 HC        1 <0>         0.0000
     85 H22        -5.7158   -0.6188    0.0000 HA        1 <0>         0.0000
     86 H23        -4.2868   -0.6188    0.0000 HC        1 <0>         0.0000
     87 H24        -4.2868   -0.6188    0.0000 HC        1 <0>         0.0000
     88 H25        -3.5724   -1.0313    0.0000 HC        1 <0>         0.0000
     89 H26        -3.5724   -1.0313    0.0000 HC        1 <0>         0.0000
     90 H27        -2.8579   -0.6188    0.0000 HA        1 <0>         0.0000
     91 H28        -1.4289   -0.6188    0.0000 HC        1 <0>         0.0000
     92 H29        -1.4289   -0.6188    0.0000 HC        1 <0>         0.0000
     93 H30        -0.7145   -1.0313    0.0000 HC        1 <0>         0.0000
     94 H31        -0.7145   -1.0313    0.0000 HC        1 <0>         0.0000
     95 H32         0.0000   -0.6188    0.0000 HA        1 <0>         0.0000
     96 H33         1.4289   -0.6188    0.0000 HC        1 <0>         0.0000
     97 H34         1.4289   -0.6188    0.0000 HC        1 <0>         0.0000
     98 H35         2.1434   -1.0313    0.0000 HC        1 <0>         0.0000
     99 H36         2.1434   -1.0313    0.0000 HC        1 <0>         0.0000
    100 H37         2.8579   -0.6188    0.0000 HA        1 <0>         0.0000
    101 H38         4.2868   -0.6188    0.0000 HC        1 <0>         0.0000
    102 H39         4.2868   -0.6188    0.0000 HC        1 <0>         0.0000
    103 H40         5.0013   -1.0313    0.0000 HC        1 <0>         0.0000
    104 H41         5.0013   -1.0313    0.0000 HC        1 <0>         0.0000
    105 H42         5.7158   -0.6188    0.0000 HA        1 <0>         0.0000
    106 H43         7.1447   -0.6188    0.0000 HC        1 <0>         0.0000
    107 H44         7.1447   -0.6188    0.0000 HC        1 <0>         0.0000
    108 H45         7.8592   -1.0313    0.0000 HC        1 <0>         0.0000
    109 H46         7.8592   -1.0313    0.0000 HC        1 <0>         0.0000
    110 H47         8.5737   -0.6188    0.0000 HA        1 <0>         0.0000
    111 H48        10.0026   -0.6188    0.0000 HC        1 <0>         0.0000
    112 H49        10.0026   -0.6188    0.0000 HC        1 <0>         0.0000
    113 H50        10.7171   -1.0313    0.0000 HC        1 <0>         0.0000
    114 H51        10.7171   -1.0313    0.0000 HC        1 <0>         0.0000
    115 H52        11.4315   -0.6188    0.0000 HA        1 <0>         0.0000
    116 H53        12.8605   -0.6188    0.0000 HC        1 <0>         0.0000
    117 H54        12.8605   -0.6188    0.0000 HC        1 <0>         0.0000
    118 H55        13.5749   -1.0313    0.0000 HC        1 <0>         0.0000
    119 H56        13.5749   -1.0313    0.0000 HC        1 <0>         0.0000
    120 H57        14.2894   -0.6188    0.0000 HA        1 <0>         0.0000
    121 H58        15.7184   -0.6188    0.0000 HC        1 <0>         0.0000
    122 H59        15.7184   -0.6188    0.0000 HC        1 <0>         0.0000
    123 H60        15.7184   -0.6188    0.0000 HC        1 <0>         0.0000
    124 H61        15.0039   -1.8563    0.0000 HC        1 <0>         0.0000
    125 H62        15.0039   -1.8563    0.0000 HC        1 <0>         0.0000
    126 H63        15.0039   -1.8563    0.0000 HC        1 <0>         0.0000
    127 H64        12.1460   -1.8563    0.0000 HC        1 <0>         0.0000
    128 H65        12.1460   -1.8563    0.0000 HC        1 <0>         0.0000
    129 H66        12.1460   -1.8563    0.0000 HC        1 <0>         0.0000
    130 H67         9.2881   -1.8563    0.0000 HC        1 <0>         0.0000
    131 H68         9.2881   -1.8563    0.0000 HC        1 <0>         0.0000
    132 H69         9.2881   -1.8563    0.0000 HC        1 <0>         0.0000
    133 H70         6.4302   -1.8563    0.0000 HC        1 <0>         0.0000
    134 H71         6.4302   -1.8563    0.0000 HC        1 <0>         0.0000
    135 H72         6.4302   -1.8563    0.0000 HC        1 <0>         0.0000
    136 H73         3.5724   -1.8563    0.0000 HC        1 <0>         0.0000
    137 H74         3.5724   -1.8563    0.0000 HC        1 <0>         0.0000
    138 H75         3.5724   -1.8563    0.0000 HC        1 <0>         0.0000
    139 H76         0.7145   -1.8563    0.0000 HC        1 <0>         0.0000
    140 H77         0.7145   -1.8563    0.0000 HC        1 <0>         0.0000
    141 H78         0.7145   -1.8563    0.0000 HC        1 <0>         0.0000
    142 H79        -2.1434   -1.8563    0.0000 HC        1 <0>         0.0000
    143 H80        -2.1434   -1.8563    0.0000 HC        1 <0>         0.0000
    144 H81        -2.1434   -1.8563    0.0000 HC        1 <0>         0.0000
    145 H82        -5.0013   -1.8563    0.0000 HC        1 <0>         0.0000
    146 H83        -5.0013   -1.8563    0.0000 HC        1 <0>         0.0000
    147 H84        -5.0013   -1.8563    0.0000 HC        1 <0>         0.0000
    148 H85        -7.8592   -1.8563    0.0000 HC        1 <0>         0.0000
    149 H86        -7.8592   -1.8563    0.0000 HC        1 <0>         0.0000
    150 H87        -7.8592   -1.8563    0.0000 HC        1 <0>         0.0000
    151 H88       -10.7171   -1.8563    0.0000 HC        1 <0>         0.0000
    152 H89       -10.7171   -1.8563    0.0000 HC        1 <0>         0.0000
    153 H90       -10.7171   -1.8563    0.0000 HC        1 <0>         0.0000
@<TRIPOS>BOND
     1    1    2 1
     2    2    3 2
     3    3    4 1
     4    4    5 1
     5    5    6 2
     6    1    6 1
     7    1    7 2
     8    4    8 2
     9    3    9 1
    10   10   11 1
    11    6   10 1
    12   12   13 1
    13    5   12 1
    14   14   15 1
    15   15   16 2
    16   16   17 1
    17   17   18 1
    18   18   19 1
    19   19   20 2
    20   20   21 1
    21   21   22 1
    22   22   23 1
    23   23   24 2
    24   24   25 1
    25   25   26 1
    26   26   27 1
    27   27   28 2
    28   28   29 1
    29   29   30 1
    30   30   31 1
    31   31   32 2
    32   32   33 1
    33   33   34 1
    34   34   35 1
    35   35   36 2
    36   36   37 1
    37   37   38 1
    38   38   39 1
    39   39   40 2
    40   40   41 1
    41   41   42 1
    42   42   43 1
    43   43   44 2
    44   44   45 1
    45   45   46 1
    46   46   47 1
    47   47   48 2
    48   48   49 1
    49   49   50 1
    50   50   51 1
    51   51   52 2
    52   52   53 1
    53   52   54 1
    54   48   55 1
    55   44   56 1
    56   40   57 1
    57   36   58 1
    58   32   59 1
    59   28   60 1
    60   24   61 1
    61   20   62 1
    62   16   63 1
    63    2   14 1
    64    9   64 1
    65    9   65 1
    66    9   66 1
    67   11   67 1
    68   11   68 1
    69   11   69 1
    70   13   70 1
    71   13   71 1
    72   13   72 1
    73   14   73 1
    74   14   74 1
    75   15   75 1
    76   17   76 1
    77   17   77 1
    78   18   78 1
    79   18   79 1
    80   19   80 1
    81   21   81 1
    82   21   82 1
    83   22   83 1
    84   22   84 1
    85   23   85 1
    86   25   86 1
    87   25   87 1
    88   26   88 1
    89   26   89 1
    90   27   90 1
    91   29   91 1
    92   29   92 1
    93   30   93 1
    94   30   94 1
    95   31   95 1
    96   33   96 1
    97   33   97 1
    98   34   98 1
    99   34   99 1
   100   35  100 1
   101   37  101 1
   102   37  102 1
   103   38  103 1
   104   38  104 1
   105   39  105 1
   106   41  106 1
   107   41  107 1
   108   42  108 1
   109   42  109 1
   110   43  110 1
   111   45  111 1
   112   45  112 1
   113   46  113 1
   114   46  114 1
   115   47  115 1
   116   49  116 1
   117   49  117 1
   118   50  118 1
   119   50  119 1
   120   51  120 1
   121   53  121 1
   122   53  122 1
   123   53  123 1
   124   54  124 1
   125   54  125 1
   126   54  126 1
   127   55  127 1
   128   55  128 1
   129   55  129 1
   130   56  130 1
   131   56  131 1
   132   56  132 1
   133   57  133 1
   134   57  134 1
   135   57  135 1
   136   58  136 1
   137   58  137 1
   138   58  138 1
   139   59  139 1
   140   59  140 1
   141   59  141 1
   142   60  142 1
   143   60  143 1
   144   60  144 1
   145   61  145 1
   146   61  146 1
   147   61  147 1
   148   62  148 1
   149   62  149 1
   150   62  150 1
   151   63  151 1
   152   63  152 1
   153   63  153 1
@<TRIPOS>MOLECULE
*****
   55    58     0     0     0
SMALL
NO_CHARGES

@<TRIPOS>ATOM
      1 C1         -0.4386    0.7834    0.0000 CT        1 <0>         0.0000
      2 C2         -1.1526    0.3701    0.0000 CT        1 <0>         0.0000
      3 C3          0.2753    0.3701    0.0000 CT        1 <0>         0.0000
      4 O1         -1.1526   -0.4566    0.0000 OS        1 <0>         0.0000
      5 C4         -0.4386   -0.8699    0.0000 CT        1 <0>         0.0000
      6 O2         -1.4782    1.0464    0.0000 OS        1 <0>         0.0000
      7 O3         -1.9542    0.5581    0.0000 OS        1 <0>         0.0000
      8 C5         -0.4762    1.6394    0.0000 CT        1 <0>         0.0000
      9 C6         -2.3049    1.3012    0.0000 CT        1 <0>         0.0000
     10 C7          0.2753   -0.4566    0.0000 CT        1 <0>         0.0000
     11 O4         -1.5408    1.7019    0.0000 OS        1 <0>         0.0000
     12 C8          0.9099    0.8711    0.0000 CT        1 <0>         0.0000
     13 C9         -1.1317    2.2239    0.0000 CT        1 <0>         0.0000
     14 O5         -0.4428   -1.6966    0.0000 OS        1 <0>         0.0000
     15 C10         0.2126    2.1028    0.0000 CT        1 <0>         0.0000
     16 C11         0.9140    1.6853    0.0000 CT        1 <0>         0.0000
     17 C12        -1.9417    2.0485    0.0000 CT        1 <0>         0.0000
     18 C13        -3.1316    1.3095    0.0000 CT        1 <0>         0.0000
     19 C14         0.9892   -0.8699    0.0000 CT        1 <0>         0.0000
     20 C15         0.2084    2.9295    0.0000 CT        1 <0>         0.0000
     21 H1         -1.8665   -0.0431    0.0000 H2        1 <0>         0.0000
     22 H2         -0.5012    2.5244    0.0000 HC        1 <0>         0.0000
     23 H3          0.9912   -0.0431    0.0000 HC        1 <0>         0.0000
     24 C16         0.2740   -2.1046    0.0000 C         1 <0>         0.0000
     25 O6          0.2740   -2.9296    0.0000 O         1 <0>         0.0000
     26 C17         0.9872   -1.6899    0.0000 CT        1 <0>         0.0000
     27 C18         1.7028   -2.1002    0.0000 CT        1 <0>         0.0000
     28 C19         2.4160   -1.6855    0.0000 C         1 <0>         0.0000
     29 O7          3.1317   -2.0958    0.0000 OH        1 <0>         0.0000
     30 O8          2.4135   -0.8605    0.0000 O         1 <0>         0.0000
     31 H4         -0.4386   -0.8699    0.0000 H2        1 <0>         0.0000
     32 H5          0.2753   -0.4566    0.0000 HC        1 <0>         0.0000
     33 H6          0.9099    0.8711    0.0000 HC        1 <0>         0.0000
     34 H7          0.9099    0.8711    0.0000 HC        1 <0>         0.0000
     35 H8         -1.1317    2.2239    0.0000 HC        1 <0>         0.0000
     36 H9         -1.1317    2.2239    0.0000 HC        1 <0>         0.0000
     37 H10         0.2126    2.1028    0.0000 HC        1 <0>         0.0000
     38 H11         0.9140    1.6853    0.0000 HC        1 <0>         0.0000
     39 H12         0.9140    1.6853    0.0000 HC        1 <0>         0.0000
     40 H13        -1.9417    2.0485    0.0000 HC        1 <0>         0.0000
     41 H14        -1.9417    2.0485    0.0000 HC        1 <0>         0.0000
     42 H15        -3.1316    1.3095    0.0000 HC        1 <0>         0.0000
     43 H16        -3.1316    1.3095    0.0000 HC        1 <0>         0.0000
     44 H17        -3.1316    1.3095    0.0000 HC        1 <0>         0.0000
     45 H18         0.9892   -0.8699    0.0000 HC        1 <0>         0.0000
     46 H19         0.9892   -0.8699    0.0000 HC        1 <0>         0.0000
     47 H20         0.9892   -0.8699    0.0000 HC        1 <0>         0.0000
     48 H21         0.2084    2.9295    0.0000 HC        1 <0>         0.0000
     49 H22         0.2084    2.9295    0.0000 HC        1 <0>         0.0000
     50 H23         0.2084    2.9295    0.0000 HC        1 <0>         0.0000
     51 H24         0.9872   -1.6899    0.0000 HC        1 <0>         0.0000
     52 H25         0.9872   -1.6899    0.0000 HC        1 <0>         0.0000
     53 H26         1.7028   -2.1002    0.0000 HC        1 <0>         0.0000
     54 H27         1.7028   -2.1002    0.0000 HC        1 <0>         0.0000
     55 H28         3.1317   -2.0958    0.0000 HO        1 <0>         0.0000
@<TRIPOS>BOND
     1    1    2 1
     2    1    3 1
     3    2    4 1
     4    5   10 1
     5    1    6 1
     6    2    7 1
     7    1    8 1
     8    9   11 1
     9    3   10 1
    10    6   11 1
    11    3   12 1
    12    8   13 1
    13    5   14 1
    14    8   15 1
    15   15   16 1
    16   13   17 1
    17    9   18 1
    18   10   19 1
    19   15   20 1
    20    2   21 1
    21    8   22 1
    22   12   16 1
    23    9   17 1
    24    7    9 1
    25    4    5 1
    26    3   23 1
    27   14   24 1
    28   24   25 2
    29   24   26 1
    30   26   27 1
    31   27   28 1
    32   28   29 1
    33   28   30 2
    34    5   31 1
    35   10   32 1
    36   12   33 1
    37   12   34 1
    38   13   35 1
    39   13   36 1
    40   15   37 1
    41   16   38 1
    42   16   39 1
    43   17   40 1
    44   17   41 1
    45   18   42 1
    46   18   43 1
    47   18   44 1
    48   19   45 1
    49   19   46 1
    50   19   47 1
    51   20   48 1
    52   20   49 1
    53   20   50 1
    54   26   51 1
    55   26   52 1
    56   27   53 1
    57   27   54 1
    58   29   55 1
@<TRIPOS>MOLECULE
*****
   57    61     0     0     0
SMALL
NO_CHARGES

@<TRIPOS>ATOM
      1 C1          1.7910    0.6135    0.0000 CT        1 <0>         0.0000
      2 C2          2.5061    0.1942    0.0000 CA        1 <0>         0.0000
      3 C3          1.7946    1.4421    0.0000 CT        1 <0>         0.0000
      4 O1          1.0726    0.2011    0.0000 OS        1 <0>         0.0000
      5 C4          3.2178    0.6100    0.0000 CA        1 <0>         0.0000
      6 C5          2.4958   -0.6307    0.0000 CA        1 <0>         0.0000
      7 O2          1.0794    1.8546    0.0000 OS        1 <0>         0.0000
      8 C6          2.5061    1.8580    0.0000 CT        1 <0>         0.0000
      9 C7          0.3576    0.6206    0.0000 CA        1 <0>         0.0000
     10 C8          3.9327    0.1907    0.0000 CA        1 <0>         0.0000
     11 C9          3.2108   -1.0432    0.0000 CA        1 <0>         0.0000
     12 C10         0.3609    1.4456    0.0000 CA        1 <0>         0.0000
     13 O3          3.2213    1.4456    0.0000 OH        1 <0>         0.0000
     14 C11        -0.3540    0.2045    0.0000 CA        1 <0>         0.0000
     15 C12         3.9293   -0.6377    0.0000 CA        1 <0>         0.0000
     16 O4          4.6513    0.6033    0.0000 OS        1 <0>         0.0000
     17 C13        -0.3540    1.8580    0.0000 CA        1 <0>         0.0000
     18 C14        -1.0656    0.6206    0.0000 CA        1 <0>         0.0000
     19 O5          4.6444   -1.0502    0.0000 OH        1 <0>         0.0000
     20 C15         5.3594    0.1873    0.0000 CT        1 <0>         0.0000
     21 C16        -1.0656    1.4456    0.0000 CA        1 <0>         0.0000
     22 C17        -1.7842    0.2045    0.0000 CT        1 <0>         0.0000
     23 O6         -2.4992    0.6206    0.0000 OS        1 <0>         0.0000
     24 C18        -1.7806   -0.6205    0.0000 CT        1 <0>         0.0000
     25 C19        -3.2142    0.2011    0.0000 CA        1 <0>         0.0000
     26 C20        -2.4958   -1.0329    0.0000 C         1 <0>         0.0000
     27 O7         -1.0656   -1.0295    0.0000 OH        1 <0>         0.0000
     28 C21        -3.2142   -0.6205    0.0000 CA        1 <0>         0.0000
     29 C22        -3.9293    0.6170    0.0000 CA        1 <0>         0.0000
     30 O8         -2.4958   -1.8580    0.0000 O         1 <0>         0.0000
     31 C23        -3.9258   -1.0295    0.0000 CA        1 <0>         0.0000
     32 C24        -4.6409    0.2011    0.0000 CA        1 <0>         0.0000
     33 C25        -4.6409   -0.6205    0.0000 CA        1 <0>         0.0000
     34 O9         -3.9258   -1.8580    0.0000 OH        1 <0>         0.0000
     35 O10        -5.3594    0.6170    0.0000 OH        1 <0>         0.0000
     36 H1         -1.7842    1.0296    0.0000 H1        1 <0>         0.0000
     37 H2          1.7910   -0.2114    0.0000 H1        1 <0>         0.0000
     38 H3          1.7946    1.4421    0.0000 H1        1 <0>         0.0000
     39 H4          3.2178    0.6100    0.0000 HA        1 <0>         0.0000
     40 H5          2.4958   -0.6307    0.0000 HA        1 <0>         0.0000
     41 H6          2.5061    1.8580    0.0000 H1        1 <0>         0.0000
     42 H7          2.5061    1.8580    0.0000 H1        1 <0>         0.0000
     43 H8          3.2108   -1.0432    0.0000 HA        1 <0>         0.0000
     44 H9          3.2213    1.4456    0.0000 HO        1 <0>         0.0000
     45 H10        -0.3540    0.2045    0.0000 HA        1 <0>         0.0000
     46 H11        -0.3540    1.8580    0.0000 HA        1 <0>         0.0000
     47 H12         4.6444   -1.0502    0.0000 HO        1 <0>         0.0000
     48 H13         5.3594    0.1873    0.0000 H1        1 <0>         0.0000
     49 H14         5.3594    0.1873    0.0000 H1        1 <0>         0.0000
     50 H15         5.3594    0.1873    0.0000 H1        1 <0>         0.0000
     51 H16        -1.0656    1.4456    0.0000 HA        1 <0>         0.0000
     52 H17        -1.7806   -0.6205    0.0000 H1        1 <0>         0.0000
     53 H18        -1.0656   -1.0295    0.0000 HO        1 <0>         0.0000
     54 H19        -3.9293    0.6170    0.0000 HA        1 <0>         0.0000
     55 H20        -4.6409   -0.6205    0.0000 HA        1 <0>         0.0000
     56 H21        -3.9258   -1.8580    0.0000 HO        1 <0>         0.0000
     57 H22        -5.3594    0.6170    0.0000 HO        1 <0>         0.0000
@<TRIPOS>BOND
     1    1    2 1
     2    1    3 1
     3    1    4 1
     4    2    5 ar
     5    2    6 ar
     6    3    7 1
     7    3    8 1
     8    4    9 1
     9    5   10 ar
    10    6   11 ar
    11    7   12 1
    12    8   13 1
    13    9   14 ar
    14   10   15 ar
    15   10   16 1
    16   12   17 ar
    17   14   18 ar
    18   15   19 1
    19   16   20 1
    20   17   21 ar
    21   18   22 1
    22   22   23 1
    23   22   24 1
    24   23   25 1
    25   24   26 1
    26   24   27 1
    27   25   28 ar
    28   25   29 ar
    29   26   30 2
    30   28   31 ar
    31   29   32 ar
    32   31   33 ar
    33   31   34 1
    34   32   35 1
    35    9   12 ar
    36   11   15 ar
    37   18   21 ar
    38   26   28 1
    39   32   33 ar
    40   22   36 1
    41    1   37 1
    42    3   38 1
    43    5   39 1
    44    6   40 1
    45    8   41 1
    46    8   42 1
    47   11   43 1
    48   13   44 1
    49   14   45 1
    50   17   46 1
    51   19   47 1
    52   20   48 1
    53   20   49 1
    54   20   50 1
    55   21   51 1
    56   24   52 1
    57   27   53 1
    58   29   54 1
    59   33   55 1
    60   34   56 1
    61   35   57 1
@<TRIPOS>MOLECULE
*****
   24    24     0     0     0
SMALL
NO_CHARGES

@<TRIPOS>ATOM
      1 C1         12.3216   -5.7537    0.0000 CT        1 <0>         0.0000
      2 C2         12.3216   -6.5787    0.0000 CT        1 <0>         0.0000
      3 O1         13.0332   -5.3412    0.0000 OS        1 <0>         0.0000
      4 C3         11.6067   -5.3412    0.0000 CT        1 <0>         0.0000
      5 C4         13.0332   -6.9911    0.0000 CT        1 <0>         0.0000
      6 O2         11.6067   -6.9911    0.0000 OH        1 <0>         0.0000
      7 C5         13.7515   -5.7537    0.0000 CT        1 <0>         0.0000
      8 O3         10.9811   -5.8775    0.0000 OH        1 <0>         0.0000
      9 C6         13.7515   -6.5787    0.0000 CT        1 <0>         0.0000
     10 O4         13.0332   -7.8160    0.0000 OH        1 <0>         0.0000
     11 O5         14.4630   -5.3412    0.0000 OH        1 <0>         0.0000
     12 O6         14.4630   -6.9911    0.0000 OH        1 <0>         0.0000
     13 H1         12.3216   -5.7537    0.0000 H1        1 <0>         0.0000
     14 H2         12.3216   -6.5787    0.0000 H1        1 <0>         0.0000
     15 H3         11.6067   -5.3412    0.0000 H1        1 <0>         0.0000
     16 H4         11.6067   -5.3412    0.0000 H1        1 <0>         0.0000
     17 H5         13.0332   -6.9911    0.0000 H1        1 <0>         0.0000
     18 H6         11.6067   -6.9911    0.0000 HO        1 <0>         0.0000
     19 H7         13.7515   -5.7537    0.0000 H2        1 <0>         0.0000
     20 H8         10.9811   -5.8775    0.0000 HO        1 <0>         0.0000
     21 H9         13.7515   -6.5787    0.0000 H1        1 <0>         0.0000
     22 H10        13.0332   -7.8160    0.0000 HO        1 <0>         0.0000
     23 H11        14.4630   -5.3412    0.0000 HO        1 <0>         0.0000
     24 H12        14.4630   -6.9911    0.0000 HO        1 <0>         0.0000
@<TRIPOS>BOND
     1    1    2 1
     2    1    3 1
     3    1    4 1
     4    2    5 1
     5    2    6 1
     6    3    7 1
     7    4    8 1
     8    5    9 1
     9    5   10 1
    10    7   11 1
    11    9   12 1
    12    7    9 1
    13    1   13 1
    14    2   14 1
    15    4   15 1
    16    4   16 1
    17    5   17 1
    18    6   18 1
    19    7   19 1
    20    8   20 1
    21    9   21 1
    22   10   22 1
    23   11   23 1
    24   12   24 1
@<TRIPOS>MOLECULE
*****
    9     9     0     0     0
SMALL
NO_CHARGES

@<TRIPOS>ATOM
      1 C1         -0.4124   -0.5834    0.0000 CT        1 <0>         0.0000
      2 C2         -0.9958    0.0000    0.0000 CT        1 <0>         0.0000
      3 O1         -0.4124    0.5834    0.0000 OS        1 <0>         0.0000
      4 C3          0.1709    0.0000    0.0000 C         1 <0>         0.0000
      5 O2          0.9958    0.0000    0.0000 O         1 <0>         0.0000
      6 H1         -0.4124   -0.5834    0.0000 HC        1 <0>         0.0000
      7 H2         -0.4124   -0.5834    0.0000 HC        1 <0>         0.0000
      8 H3         -0.9958    0.0000    0.0000 H1        1 <0>         0.0000
      9 H4         -0.9958    0.0000    0.0000 H1        1 <0>         0.0000
@<TRIPOS>BOND
     1    1    2 1
     2    1    4 1
     3    3    4 1
     4    2    3 1
     5    4    5 2
     6    1    6 1
     7    1    7 1
     8    2    8 1
     9    2    9 1
@<TRIPOS>MOLECULE
*****
   54    55     0     0     0
SMALL
NO_CHARGES

@<TRIPOS>ATOM
      1 C1          8.5737   -0.8250    0.0000 CT        1 <0>         0.0000
      2 C2         18.5762    1.6500    0.0000 CT        1 <0>         0.0000
      3 C3          9.2881   -0.4125    0.0000 CT        1 <0>         0.0000
      4 C4         18.5762    0.8250    0.0000 CT        1 <0>         0.0000
      5 C5         10.0026   -0.8250    0.0000 CT        1 <0>         0.0000
      6 C6         17.8618    0.4125    0.0000 CT        1 <0>         0.0000
      7 C7         10.7171   -0.4125    0.0000 CT        1 <0>         0.0000
      8 C8         12.1460   -0.4125    0.0000 CT        1 <0>         0.0000
      9 C9         12.8605   -0.8250    0.0000 CT        1 <0>         0.0000
     10 C10        14.2894   -0.8250    0.0000 CT        1 <0>         0.0000
     11 C11        15.0039   -0.4125    0.0000 CT        1 <0>         0.0000
     12 C12        18.5762   -0.8250    0.0000 CA        1 <0>         0.0000
     13 C13        17.1473   -1.6500    0.0000 CA        1 <0>         0.0000
     14 C14        16.4328   -0.4125    0.0000 CT        1 <0>         0.0000
     15 C15        18.8538   -2.9557    0.0000 CT        1 <0>         0.0000
     16 C16        17.8618   -0.4125    0.0000 CA        1 <0>         0.0000
     17 C17        17.1473   -0.8250    0.0000 CA        1 <0>         0.0000
     18 C18        18.5762   -1.6500    0.0000 CA        1 <0>         0.0000
     19 C19        17.8618   -2.0625    0.0000 CA        1 <0>         0.0000
     20 O1         11.4315   -0.8250    0.0000 OS        1 <0>         0.0000
     21 O2         13.5749   -0.4125    0.0000 OS        1 <0>         0.0000
     22 O3         15.7184   -0.8250    0.0000 OS        1 <0>         0.0000
     23 O4         19.1893   -2.2020    0.0000 OS        1 <0>         0.0000
     24 O5         18.0333   -2.8695    0.0000 OS        1 <0>         0.0000
     25 H1          8.5737   -0.8250    0.0000 HC        1 <0>         0.0000
     26 H2          8.5737   -0.8250    0.0000 HC        1 <0>         0.0000
     27 H3          8.5737   -0.8250    0.0000 HC        1 <0>         0.0000
     28 H4         18.5762    1.6500    0.0000 HC        1 <0>         0.0000
     29 H5         18.5762    1.6500    0.0000 HC        1 <0>         0.0000
     30 H6         18.5762    1.6500    0.0000 HC        1 <0>         0.0000
     31 H7          9.2881   -0.4125    0.0000 HC        1 <0>         0.0000
     32 H8          9.2881   -0.4125    0.0000 HC        1 <0>         0.0000
     33 H9         18.5762    0.8250    0.0000 HC        1 <0>         0.0000
     34 H10        18.5762    0.8250    0.0000 HC        1 <0>         0.0000
     35 H11        10.0026   -0.8250    0.0000 HC        1 <0>         0.0000
     36 H12        10.0026   -0.8250    0.0000 HC        1 <0>         0.0000
     37 H13        17.8618    0.4125    0.0000 HC        1 <0>         0.0000
     38 H14        17.8618    0.4125    0.0000 HC        1 <0>         0.0000
     39 H15        10.7171   -0.4125    0.0000 H1        1 <0>         0.0000
     40 H16        10.7171   -0.4125    0.0000 H1        1 <0>         0.0000
     41 H17        12.1460   -0.4125    0.0000 H1        1 <0>         0.0000
     42 H18        12.1460   -0.4125    0.0000 H1        1 <0>         0.0000
     43 H19        12.8605   -0.8250    0.0000 H1        1 <0>         0.0000
     44 H20        12.8605   -0.8250    0.0000 H1        1 <0>         0.0000
     45 H21        14.2894   -0.8250    0.0000 H1        1 <0>         0.0000
     46 H22        14.2894   -0.8250    0.0000 H1        1 <0>         0.0000
     47 H23        15.0039   -0.4125    0.0000 H1        1 <0>         0.0000
     48 H24        15.0039   -0.4125    0.0000 H1        1 <0>         0.0000
     49 H25        18.5762   -0.8250    0.0000 HA        1 <0>         0.0000
     50 H26        17.1473   -1.6500    0.0000 HA        1 <0>         0.0000
     51 H27        16.4328   -0.4125    0.0000 H1        1 <0>         0.0000
     52 H28        16.4328   -0.4125    0.0000 H1        1 <0>         0.0000
     53 H29        18.8538   -2.9557    0.0000 H2        1 <0>         0.0000
     54 H30        18.8538   -2.9557    0.0000 H2        1 <0>         0.0000
@<TRIPOS>BOND
     1    1    3 1
     2    2    4 1
     3    3    5 1
     4    4    6 1
     5    5    7 1
     6    8    9 1
     7   10   11 1
     8    6   16 1
     9   12   16 ar
    10   13   17 ar
    11   14   17 1
    12   16   17 ar
    13   12   18 ar
    14   13   19 ar
    15   18   19 ar
    16    7   20 1
    17    8   20 1
    18    9   21 1
    19   10   21 1
    20   11   22 1
    21   14   22 1
    22   15   23 1
    23   18   23 1
    24   15   24 1
    25   19   24 1
    26    1   25 1
    27    1   26 1
    28    1   27 1
    29    2   28 1
    30    2   29 1
    31    2   30 1
    32    3   31 1
    33    3   32 1
    34    4   33 1
    35    4   34 1
    36    5   35 1
    37    5   36 1
    38    6   37 1
    39    6   38 1
    40    7   39 1
    41    7   40 1
    42    8   41 1
    43    8   42 1
    44    9   43 1
    45    9   44 1
    46   10   45 1
    47   10   46 1
    48   11   47 1
    49   11   48 1
    50   12   49 1
    51   13   50 1
    52   14   51 1
    53   14   52 1
    54   15   53 1
    55   15   54 1
@<TRIPOS>MOLECULE
*****
   45    46     0     0     0
SMALL
NO_CHARGES

@<TRIPOS>ATOM
      1 C1         -1.4289    6.6000    0.0000 CT        1 <0>         0.0000
      2 C2         -2.2539    5.7750    0.0000 CT        1 <0>         0.0000
      3 C3         -0.6039    5.7750    0.0000 CT        1 <0>         0.0000
      4 C4          2.8578    0.0000    0.0000 CT        1 <0>         0.0000
      5 C5         -0.7144    3.7125    0.0000 CA        1 <0>         0.0000
      6 C6         -2.1434    3.7125    0.0000 CA        1 <0>         0.0000
      7 C7          0.0000    0.0000    0.0000 CA        1 <0>         0.0000
      8 C8          0.7144    1.2375    0.0000 CA        1 <0>         0.0000
      9 C9         -0.7144    4.5375    0.0000 CA        1 <0>         0.0000
     10 C10        -2.1434    4.5375    0.0000 CA        1 <0>         0.0000
     11 C11         0.7144   -0.4125    0.0000 CA        1 <0>         0.0000
     12 C12         1.4289    0.8250    0.0000 CA        1 <0>         0.0000
     13 C13        -0.7144    2.0625    0.0000 CT        1 <0>         0.0000
     14 C14        -1.4289    3.3000    0.0000 CA        1 <0>         0.0000
     15 C15         0.0000    0.8250    0.0000 CA        1 <0>         0.0000
     16 C16        -1.4289    4.9500    0.0000 CA        1 <0>         0.0000
     17 C17         1.4289    0.0000    0.0000 CA        1 <0>         0.0000
     18 C18        -1.4289    2.4750    0.0000 C         1 <0>         0.0000
     19 C19        -0.7144    1.2375    0.0000 C         1 <0>         0.0000
     20 C20        -1.4289    5.7750    0.0000 CT        1 <0>         0.0000
     21 O1         -2.1434    2.0625    0.0000 O         1 <0>         0.0000
     22 O2         -1.4289    0.8250    0.0000 O         1 <0>         0.0000
     23 O3          2.1434   -0.4125    0.0000 OS        1 <0>         0.0000
     24 H1         -1.4289    6.6000    0.0000 HC        1 <0>         0.0000
     25 H2         -1.4289    6.6000    0.0000 HC        1 <0>         0.0000
     26 H3         -1.4289    6.6000    0.0000 HC        1 <0>         0.0000
     27 H4         -2.2539    5.7750    0.0000 HC        1 <0>         0.0000
     28 H5         -2.2539    5.7750    0.0000 HC        1 <0>         0.0000
     29 H6         -2.2539    5.7750    0.0000 HC        1 <0>         0.0000
     30 H7         -0.6039    5.7750    0.0000 HC        1 <0>         0.0000
     31 H8         -0.6039    5.7750    0.0000 HC        1 <0>         0.0000
     32 H9         -0.6039    5.7750    0.0000 HC        1 <0>         0.0000
     33 H10         2.8578    0.0000    0.0000 H1        1 <0>         0.0000
     34 H11         2.8578    0.0000    0.0000 H1        1 <0>         0.0000
     35 H12         2.8578    0.0000    0.0000 H1        1 <0>         0.0000
     36 H13        -0.7144    3.7125    0.0000 HA        1 <0>         0.0000
     37 H14        -2.1434    3.7125    0.0000 HA        1 <0>         0.0000
     38 H15         0.0000    0.0000    0.0000 HA        1 <0>         0.0000
     39 H16         0.7144    1.2375    0.0000 HA        1 <0>         0.0000
     40 H17        -0.7144    4.5375    0.0000 HA        1 <0>         0.0000
     41 H18        -2.1434    4.5375    0.0000 HA        1 <0>         0.0000
     42 H19         0.7144   -0.4125    0.0000 HA        1 <0>         0.0000
     43 H20         1.4289    0.8250    0.0000 HA        1 <0>         0.0000
     44 H21        -0.7144    2.0625    0.0000 HC        1 <0>         0.0000
     45 H22        -0.7144    2.0625    0.0000 HC        1 <0>         0.0000
@<TRIPOS>BOND
     1    5    9 ar
     2    6   10 ar
     3    7   11 ar
     4    8   12 ar
     5    5   14 ar
     6    6   14 ar
     7    7   15 ar
     8    8   15 ar
     9    9   16 ar
    10   10   16 ar
    11   11   17 ar
    12   12   17 ar
    13   13   18 1
    14   14   18 1
    15   13   19 1
    16   15   19 1
    17    1   20 1
    18    2   20 1
    19    3   20 1
    20   16   20 1
    21   18   21 2
    22   19   22 2
    23    4   23 1
    24   17   23 1
    25    1   24 1
    26    1   25 1
    27    1   26 1
    28    2   27 1
    29    2   28 1
    30    2   29 1
    31    3   30 1
    32    3   31 1
    33    3   32 1
    34    4   33 1
    35    4   34 1
    36    4   35 1
    37    5   36 1
    38    6   37 1
    39    7   38 1
    40    8   39 1
    41    9   40 1
    42   10   41 1
    43   11   42 1
    44   12   43 1
    45   13   44 1
    46   13   45 1
@<TRIPOS>MOLECULE
*****
   14    14     0     0     0
SMALL
NO_CHARGES

@<TRIPOS>ATOM
      1 O1         16.7886  -10.1525    0.0000 OH        1 <0>         0.0000
      2 O2         16.7886   -6.8525    0.0000 OH        1 <0>         0.0000
      3 C1         16.7886   -9.3275    0.0000 CA        1 <0>         0.0000
      4 C2         16.7886   -7.6775    0.0000 CA        1 <0>         0.0000
      5 C3         17.5032   -8.9150    0.0000 CA        1 <0>         0.0000
      6 C4         17.5032   -8.0900    0.0000 CA        1 <0>         0.0000
      7 C5         16.0742   -8.9150    0.0000 CA        1 <0>         0.0000
      8 C6         16.0742   -8.0900    0.0000 CA        1 <0>         0.0000
      9 H1         16.7886  -10.1525    0.0000 HO        1 <0>         0.0000
     10 H2         16.7886   -6.8525    0.0000 HO        1 <0>         0.0000
     11 H3         17.5032   -8.9150    0.0000 HA        1 <0>         0.0000
     12 H4         17.5032   -8.0900    0.0000 HA        1 <0>         0.0000
     13 H5         16.0742   -8.9150    0.0000 HA        1 <0>         0.0000
     14 H6         16.0742   -8.0900    0.0000 HA        1 <0>         0.0000
@<TRIPOS>BOND
     1    1    3 1
     2    2    4 1
     3    3    5 ar
     4    3    7 ar
     5    4    6 ar
     6    4    8 ar
     7    5    6 ar
     8    7    8 ar
     9    1    9 1
    10    2   10 1
    11    5   11 1
    12    6   12 1
    13    7   13 1
    14    8   14 1
@<TRIPOS>MOLECULE
*****
   99   101     0     0     0
SMALL
NO_CHARGES

@<TRIPOS>ATOM
      1 O1          1.4227   -0.0017    0.0000 OS        1 <0>         0.0000
      2 C1         -0.7206   -1.2390    0.0000 CT        1 <0>         0.0000
      3 C2         -0.7206   -0.4140    0.0000 CT        1 <0>         0.0000
      4 C3          0.7083   -0.4140    0.0000 CT        1 <0>         0.0000
      5 O2         -0.0061   -0.0015    0.0000 OS        1 <0>         0.0000
      6 C4          0.7083   -1.2390    0.0000 CT        1 <0>         0.0000
      7 C5         -0.0061   -1.6515    0.0000 CT        1 <0>         0.0000
      8 O3          1.4226   -1.6515    0.0000 OS        1 <0>         0.0000
      9 O4         -0.0062   -2.4764    0.0000 OS        1 <0>         0.0000
     10 C6         -1.4351   -0.0015    0.0000 CT        1 <0>         0.0000
     11 O5         -1.4351    0.8234    0.0000 OS        1 <0>         0.0000
     12 C7          1.4225   -2.4765    0.0000 CT        1 <0>         0.0000
     13 C8          0.7081   -2.8890    0.0000 CT        1 <0>         0.0000
     14 C9         -2.1496    1.2359    0.0000 CT        1 <0>         0.0000
     15 C10         2.1393    0.4071    0.0000 CT        1 <0>         0.0000
     16 C11         2.1435    1.2322    0.0000 CT        1 <0>         0.0000
     17 C12         1.4311    1.6483    0.0000 CT        1 <0>         0.0000
     18 C13         3.5724    1.2248    0.0000 CT        1 <0>         0.0000
     19 C14         3.5681    0.3997    0.0000 CT        1 <0>         0.0000
     20 O6          2.8600    1.6410    0.0000 OS        1 <0>         0.0000
     21 C15         2.8517   -0.0090    0.0000 CT        1 <0>         0.0000
     22 O7          4.2890    1.6336    0.0000 OS        1 <0>         0.0000
     23 O8          4.2805   -0.0162    0.0000 OS        1 <0>         0.0000
     24 O9          2.8473   -0.8338    0.0000 OS        1 <0>         0.0000
     25 O10         1.4354    2.4732    0.0000 OS        1 <0>         0.0000
     26 C16        -3.5786   -0.4143    0.0000 CT        1 <0>         0.0000
     27 C17        -2.8642   -0.0017    0.0000 CT        1 <0>         0.0000
     28 O11        -4.2931   -0.0020    0.0000 OS        1 <0>         0.0000
     29 C18        -2.1496   -1.2390    0.0000 CT        1 <0>         0.0000
     30 C19        -2.8641   -1.6517    0.0000 CT        1 <0>         0.0000
     31 O12        -2.1496   -0.4142    0.0000 OS        1 <0>         0.0000
     32 C20        -3.5785   -1.2393    0.0000 CT        1 <0>         0.0000
     33 O13        -1.4351   -1.6515    0.0000 OS        1 <0>         0.0000
     34 O14        -2.8639   -2.4767    0.0000 OS        1 <0>         0.0000
     35 O15        -4.2929   -1.6517    0.0000 OS        1 <0>         0.0000
     36 C21        -2.8643    0.8232    0.0000 CT        1 <0>         0.0000
     37 O16        -3.5788    1.2357    0.0000 OS        1 <0>         0.0000
     38 C22         4.2933    2.4586    0.0000 CT        1 <0>         0.0000
     39 C23         4.2764   -0.8412    0.0000 CT        1 <0>         0.0000
     40 C24         3.5596   -1.2501    0.0000 CT        1 <0>         0.0000
     41 C25        -3.5783   -2.8894    0.0000 CT        1 <0>         0.0000
     42 C26        -4.2930   -2.4767    0.0000 CT        1 <0>         0.0000
     43 C27        -4.2933    0.8229    0.0000 CT        1 <0>         0.0000
     44 C28        -3.5788    2.0607    0.0000 CT        1 <0>         0.0000
     45 C29         0.7231    2.8894    0.0000 CT        1 <0>         0.0000
     46 H1         -0.7206   -1.2390    0.0000 H1        1 <0>         0.0000
     47 H2         -0.7206   -0.4140    0.0000 H1        1 <0>         0.0000
     48 H3          0.7083   -0.4140    0.0000 H2        1 <0>         0.0000
     49 H4          0.7083   -1.2390    0.0000 H1        1 <0>         0.0000
     50 H5         -0.0061   -1.6515    0.0000 H1        1 <0>         0.0000
     51 H6         -1.4351   -0.0015    0.0000 H1        1 <0>         0.0000
     52 H7         -1.4351   -0.0015    0.0000 H1        1 <0>         0.0000
     53 H8          1.4225   -2.4765    0.0000 H1        1 <0>         0.0000
     54 H9          1.4225   -2.4765    0.0000 H1        1 <0>         0.0000
     55 H10         1.4225   -2.4765    0.0000 H1        1 <0>         0.0000
     56 H11         0.7081   -2.8890    0.0000 H1        1 <0>         0.0000
     57 H12         0.7081   -2.8890    0.0000 H1        1 <0>         0.0000
     58 H13         0.7081   -2.8890    0.0000 H1        1 <0>         0.0000
     59 H14        -2.1496    1.2359    0.0000 H1        1 <0>         0.0000
     60 H15        -2.1496    1.2359    0.0000 H1        1 <0>         0.0000
     61 H16        -2.1496    1.2359    0.0000 H1        1 <0>         0.0000
     62 H17         2.1393    0.4071    0.0000 H1        1 <0>         0.0000
     63 H18         2.1435    1.2322    0.0000 H1        1 <0>         0.0000
     64 H19         1.4311    1.6483    0.0000 H1        1 <0>         0.0000
     65 H20         1.4311    1.6483    0.0000 H1        1 <0>         0.0000
     66 H21         3.5724    1.2248    0.0000 H2        1 <0>         0.0000
     67 H22         3.5681    0.3997    0.0000 H1        1 <0>         0.0000
     68 H23         2.8517   -0.0090    0.0000 H1        1 <0>         0.0000
     69 H24        -3.5786   -0.4143    0.0000 H1        1 <0>         0.0000
     70 H25        -2.8642   -0.0017    0.0000 H1        1 <0>         0.0000
     71 H26        -2.1496   -1.2390    0.0000 H2        1 <0>         0.0000
     72 H27        -2.8641   -1.6517    0.0000 H1        1 <0>         0.0000
     73 H28        -3.5785   -1.2393    0.0000 H1        1 <0>         0.0000
     74 H29        -2.8643    0.8232    0.0000 H1        1 <0>         0.0000
     75 H30        -2.8643    0.8232    0.0000 H1        1 <0>         0.0000
     76 H31         4.2933    2.4586    0.0000 H1        1 <0>         0.0000
     77 H32         4.2933    2.4586    0.0000 H1        1 <0>         0.0000
     78 H33         4.2933    2.4586    0.0000 H1        1 <0>         0.0000
     79 H34         4.2764   -0.8412    0.0000 H1        1 <0>         0.0000
     80 H35         4.2764   -0.8412    0.0000 H1        1 <0>         0.0000
     81 H36         4.2764   -0.8412    0.0000 H1        1 <0>         0.0000
     82 H37         3.5596   -1.2501    0.0000 H1        1 <0>         0.0000
     83 H38         3.5596   -1.2501    0.0000 H1        1 <0>         0.0000
     84 H39         3.5596   -1.2501    0.0000 H1        1 <0>         0.0000
     85 H40        -3.5783   -2.8894    0.0000 H1        1 <0>         0.0000
     86 H41        -3.5783   -2.8894    0.0000 H1        1 <0>         0.0000
     87 H42        -3.5783   -2.8894    0.0000 H1        1 <0>         0.0000
     88 H43        -4.2930   -2.4767    0.0000 H1        1 <0>         0.0000
     89 H44        -4.2930   -2.4767    0.0000 H1        1 <0>         0.0000
     90 H45        -4.2930   -2.4767    0.0000 H1        1 <0>         0.0000
     91 H46        -4.2933    0.8229    0.0000 H1        1 <0>         0.0000
     92 H47        -4.2933    0.8229    0.0000 H1        1 <0>         0.0000
     93 H48        -4.2933    0.8229    0.0000 H1        1 <0>         0.0000
     94 H49        -3.5788    2.0607    0.0000 H1        1 <0>         0.0000
     95 H50        -3.5788    2.0607    0.0000 H1        1 <0>         0.0000
     96 H51        -3.5788    2.0607    0.0000 H1        1 <0>         0.0000
     97 H52         0.7231    2.8894    0.0000 H1        1 <0>         0.0000
     98 H53         0.7231    2.8894    0.0000 H1        1 <0>         0.0000
     99 H54         0.7231    2.8894    0.0000 H1        1 <0>         0.0000
@<TRIPOS>BOND
     1    1    4 1
     2    2    3 1
     3    2    7 1
     4    3   10 1
     5    3    5 1
     6    4    5 1
     7    4    6 1
     8    6    8 1
     9    6    7 1
    10    7    9 1
    11    8   12 1
    12    9   13 1
    13   10   11 1
    14   11   14 1
    15   15   21 1
    16   15   16 1
    17   16   20 1
    18   16   17 1
    19   17   25 1
    20   18   19 1
    21   18   20 1
    22   18   22 1
    23   19   21 1
    24   19   23 1
    25   21   24 1
    26    1   15 1
    27    2   33 1
    28   26   32 1
    29   26   27 1
    30   26   28 1
    31   27   31 1
    32   27   36 1
    33   29   30 1
    34   29   31 1
    35   29   33 1
    36   30   32 1
    37   30   34 1
    38   32   35 1
    39   36   37 1
    40   22   38 1
    41   23   39 1
    42   24   40 1
    43   34   41 1
    44   35   42 1
    45   28   43 1
    46   37   44 1
    47   25   45 1
    48    2   46 1
    49    3   47 1
    50    4   48 1
    51    6   49 1
    52    7   50 1
    53   10   51 1
    54   10   52 1
    55   12   53 1
    56   12   54 1
    57   12   55 1
    58   13   56 1
    59   13   57 1
    60   13   58 1
    61   14   59 1
    62   14   60 1
    63   14   61 1
    64   15   62 1
    65   16   63 1
    66   17   64 1
    67   17   65 1
    68   18   66 1
    69   19   67 1
    70   21   68 1
    71   26   69 1
    72   27   70 1
    73   29   71 1
    74   30   72 1
    75   32   73 1
    76   36   74 1
    77   36   75 1
    78   38   76 1
    79   38   77 1
    80   38   78 1
    81   39   79 1
    82   39   80 1
    83   39   81 1
    84   40   82 1
    85   40   83 1
    86   40   84 1
    87   41   85 1
    88   41   86 1
    89   41   87 1
    90   42   88 1
    91   42   89 1
    92   42   90 1
    93   43   91 1
    94   43   92 1
    95   43   93 1
    96   44   94 1
    97   44   95 1
    98   44   96 1
    99   45   97 1
   100   45   98 1
   101   45   99 1
@<TRIPOS>MOLECULE
*****
   15    15     0     0     0
SMALL
NO_CHARGES

@<TRIPOS>ATOM
      1 C1          0.7145    2.0625    0.0000 CT        1 <0>         0.0000
      2 C2          0.7145    1.2375    0.0000 CA        1 <0>         0.0000
      3 C3          1.4289    0.8250    0.0000 CA        1 <0>         0.0000
      4 C4          1.4289    0.0000    0.0000 CA        1 <0>         0.0000
      5 C5          0.7145   -0.4125    0.0000 CA        1 <0>         0.0000
      6 C6          0.0000    0.0000    0.0000 CA        1 <0>         0.0000
      7 C7          0.0000    0.8250    0.0000 CA        1 <0>         0.0000
      8 H1          0.7145    2.0625    0.0000 HC        1 <0>         0.0000
      9 H2          0.7145    2.0625    0.0000 HC        1 <0>         0.0000
     10 H3          0.7145    2.0625    0.0000 HC        1 <0>         0.0000
     11 H4          1.4289    0.8250    0.0000 HA        1 <0>         0.0000
     12 H5          1.4289    0.0000    0.0000 HA        1 <0>         0.0000
     13 H6          0.7145   -0.4125    0.0000 HA        1 <0>         0.0000
     14 H7          0.0000    0.0000    0.0000 HA        1 <0>         0.0000
     15 H8          0.0000    0.8250    0.0000 HA        1 <0>         0.0000
@<TRIPOS>BOND
     1    1    2 1
     2    2    3 ar
     3    3    4 ar
     4    4    5 ar
     5    5    6 ar
     6    6    7 ar
     7    2    7 ar
     8    1    8 1
     9    1    9 1
    10    1   10 1
    11    3   11 1
    12    4   12 1
    13    5   13 1
    14    6   14 1
    15    7   15 1
@<TRIPOS>MOLECULE
*****
    2     1     0     0     0
SMALL
NO_CHARGES

@<TRIPOS>ATOM
      1 C1         13.2734   -7.4225    0.0000 C2        1 <0>         0.0000
      2 O1         14.0984   -7.4225    0.0000 Ou        1 <0>         0.0000
@<TRIPOS>BOND
     1    1    2 3
