@<TRIPOS>MOLECULE
MiniDrugBank_0
   44    46     1     0     0
SMALL
NO_CHARGES

@<TRIPOS>ATOM
      1 I1          6.1340    3.6800    0.0000 I         1 <0>        0.00000
      2 F1          1.6500   -3.1256    0.0000 F         1 <0>        0.00000
      3 O1          6.2178   -2.8730    0.0000 O.3       1 <0>        0.00000
      4 O2          4.8201   -3.1701    0.0000 O.2       1 <0>        0.00000
      5 N1          6.1340    0.8220    0.0000 N.3       1 <0>        0.00000
      6 C1          6.5282   -0.7855    0.0000 C.3       1 <0>        0.00000
      7 C2          6.7417    0.0114    0.0000 C.3       1 <0>        0.00000
      8 C3          5.2616   -1.8111    0.0000 C.3       1 <0>        0.00000
      9 C4          4.5080   -1.4755    0.0000 C.3       1 <0>        0.00000
     10 C5          4.5942   -0.6551    0.0000 C.3       1 <0>        0.00000
     11 C6          8.0396   -1.4115    0.0000 C.3       1 <0>        0.00000
     12 C7          8.2532   -0.6146    0.0000 C.3       1 <0>        0.00000
     13 C8          5.7215    1.5366    0.0000 C.3       1 <0>        0.00000
     14 C9          3.7935   -1.8881    0.0000 C.ar      1 <0>        0.00000
     15 C10         5.4332   -2.6181    0.0000 C.2       1 <0>        0.00000
     16 C11         6.1340    2.2511    0.0000 C.2       1 <0>        0.00000
     17 C12         3.7935   -2.7131    0.0000 C.ar      1 <0>        0.00000
     18 C13         3.0791   -1.4755    0.0000 C.ar      1 <0>        0.00000
     19 C14         3.0791   -3.1256    0.0000 C.ar      1 <0>        0.00000
     20 C15         2.3645   -1.8881    0.0000 C.ar      1 <0>        0.00000
     21 C16         5.7215    2.9655    0.0000 C.2       1 <0>        0.00000
     22 C17         2.3645   -2.7131    0.0000 C.ar      1 <0>        0.00000
     23 C18         6.3894   -3.6800    0.0000 C.3       1 <0>        0.00000
     24 H1          6.3573   -1.4230    0.0000 H         1 <0>        0.00000
     25 H2          6.9126    0.6490    0.0000 H         1 <0>        0.00000
     26 H3          5.2616   -1.8111    0.0000 H         1 <0>        0.00000
     27 H4          4.5080   -1.4755    0.0000 H         1 <0>        0.00000
     28 H5          4.5942   -0.6551    0.0000 H         1 <0>        0.00000
     29 H6          4.5942   -0.6551    0.0000 H         1 <0>        0.00000
     30 H7          8.0396   -1.4115    0.0000 H         1 <0>        0.00000
     31 H8          8.0396   -1.4115    0.0000 H         1 <0>        0.00000
     32 H9          8.2532   -0.6146    0.0000 H         1 <0>        0.00000
     33 H10         8.2532   -0.6146    0.0000 H         1 <0>        0.00000
     34 H11         5.7215    1.5366    0.0000 H         1 <0>        0.00000
     35 H12         5.7215    1.5366    0.0000 H         1 <0>        0.00000
     36 H13         6.1340    2.2511    0.0000 H         1 <0>        0.00000
     37 H14         3.7935   -2.7131    0.0000 H         1 <0>        0.00000
     38 H15         3.0791   -1.4755    0.0000 H         1 <0>        0.00000
     39 H16         3.0791   -3.1256    0.0000 H         1 <0>        0.00000
     40 H17         2.3645   -1.8881    0.0000 H         1 <0>        0.00000
     41 H18         5.7215    2.9655    0.0000 H         1 <0>        0.00000
     42 H19         6.3894   -3.6800    0.0000 H         1 <0>        0.00000
     43 H20         6.3894   -3.6800    0.0000 H         1 <0>        0.00000
     44 H21         6.3894   -3.6800    0.0000 H         1 <0>        0.00000
@<TRIPOS>BOND
     1    1   21 1
     2    2   22 1
     3    3   15 1
     4    3   23 1
     5    4   15 2
     6    5    6 1
     7    5    7 1
     8    5   13 1
     9    6    8 1
    10    6   11 1
    11    6   24 1
    12    7   10 1
    13    7   12 1
    14    7   25 1
    15    8    9 1
    16    8   15 1
    17    9   10 1
    18    9   14 1
    19   11   12 1
    20   13   16 1
    21   14   17 ar
    22   14   18 ar
    23   16   21 2
    24   17   19 ar
    25   18   20 ar
    26   19   22 ar
    27   20   22 ar
    28    8   26 1
    29    9   27 1
    30   10   28 1
    31   10   29 1
    32   11   30 1
    33   11   31 1
    34   12   32 1
    35   12   33 1
    36   13   34 1
    37   13   35 1
    38   16   36 1
    39   17   37 1
    40   18   38 1
    41   19   39 1
    42   20   40 1
    43   21   41 1
    44   23   42 1
    45   23   43 1
    46   23   44 1
@<TRIPOS>SUBSTRUCTURE
     1 <0>         1 GROUP 0 A     ****
@<TRIPOS>MOLECULE
ZST
   41    44     1     0     0
SMALL
NO_CHARGES

@<TRIPOS>ATOM
      1 C1         -1.9032    0.4637    0.0000 C.ar      1 <0>        0.00000
      2 O1         -2.3157    1.1781    0.0000 O.2       1 <0>        0.00000
      3 C2         -2.3157   -0.2508    0.0000 C.ar      1 <0>        0.00000
      4 C3         -1.9032   -0.9653    0.0000 C.ar      1 <0>        0.00000
      5 C4         -1.0782   -0.9653    0.0000 C.ar      1 <0>        0.00000
      6 C5         -3.1407   -0.2508    0.0000 C.ar      1 <0>        0.00000
      7 C6         -3.5532   -0.9653    0.0000 C.ar      1 <0>        0.00000
      8 C7         -3.1407   -1.6798    0.0000 C.ar      1 <0>        0.00000
      9 C8         -2.3157   -1.6798    0.0000 C.ar      1 <0>        0.00000
     10 N1         -1.0782    0.4637    0.0000 N.am      1 <0>        0.00000
     11 N2         -0.6657   -0.2508    0.0000 N.ar      1 <0>        0.00000
     12 C9         -0.6657    1.1781    0.0000 C.3       1 <0>        0.00000
     13 C10         0.1593    1.1781    0.0000 C.ar      1 <0>        0.00000
     14 C11         1.4288    0.7656    0.0000 C.ar      1 <0>        0.00000
     15 C12         1.4288    1.5906    0.0000 C.ar      1 <0>        0.00000
     16 C13         2.1433    0.3531    0.0000 C.ar      1 <0>        0.00000
     17 C14         2.8578    0.7656    0.0000 C.ar      1 <0>        0.00000
     18 C15         2.8578    1.5906    0.0000 C.ar      1 <0>        0.00000
     19 C16         2.1433    2.0031    0.0000 C.ar      1 <0>        0.00000
     20 N3          0.6442    1.8456    0.0000 N.ar      1 <0>        0.00000
     21 S1          0.6442    0.5107    0.0000 S.3       1 <0>        0.00000
     22 C17        -0.6657   -1.6798    0.0000 C.3       1 <0>        0.00000
     23 C18         0.1593   -1.6798    0.0000 C.2       1 <0>        0.00000
     24 O2          0.5718   -0.9653    0.0000 O.2       1 <0>        0.00000
     25 O3          0.5718   -2.3942    0.0000 O.3       1 <0>        0.00000
     26 C19         3.5722    2.0031    0.0000 C.3       1 <0>        0.00000
     27 F1          4.2867    2.4156    0.0000 F         1 <0>        0.00000
     28 F2          3.9847    1.2887    0.0000 F         1 <0>        0.00000
     29 F3          3.1597    2.7176    0.0000 F         1 <0>        0.00000
     30 H1         -3.1407   -0.2508    0.0000 H         1 <0>        0.00000
     31 H2         -3.5532   -0.9653    0.0000 H         1 <0>        0.00000
     32 H3         -3.1407   -1.6798    0.0000 H         1 <0>        0.00000
     33 H4         -2.3157   -1.6798    0.0000 H         1 <0>        0.00000
     34 H5         -0.6657    1.1781    0.0000 H         1 <0>        0.00000
     35 H6         -0.6657    1.1781    0.0000 H         1 <0>        0.00000
     36 H7          2.1433    0.3531    0.0000 H         1 <0>        0.00000
     37 H8          2.8578    0.7656    0.0000 H         1 <0>        0.00000
     38 H9          2.1433    2.0031    0.0000 H         1 <0>        0.00000
     39 H10        -0.6657   -1.6798    0.0000 H         1 <0>        0.00000
     40 H11        -0.6657   -1.6798    0.0000 H         1 <0>        0.00000
     41 H12         0.5718   -2.3942    0.0000 H         1 <0>        0.00000
@<TRIPOS>BOND
     1    1    2 2
     2    1    3 1
     3    1   10 am
     4    3    4 ar
     5    3    6 ar
     6    4    5 1
     7    4    9 ar
     8    5   11 2
     9    5   22 1
    10    6    7 ar
    11    7    8 ar
    12    8    9 ar
    13   10   11 1
    14   10   12 1
    15   12   13 1
    16   13   20 2
    17   13   21 1
    18   14   15 ar
    19   14   16 ar
    20   14   21 1
    21   15   19 ar
    22   15   20 1
    23   16   17 ar
    24   17   18 ar
    25   18   19 ar
    26   18   26 1
    27   22   23 1
    28   23   24 2
    29   23   25 1
    30   26   27 1
    31   26   28 1
    32   26   29 1
    33    6   30 1
    34    7   31 1
    35    8   32 1
    36    9   33 1
    37   12   34 1
    38   12   35 1
    39   16   36 1
    40   17   37 1
    41   19   38 1
    42   22   39 1
    43   22   40 1
    44   25   41 1
@<TRIPOS>SUBSTRUCTURE
     1 <0>         1 GROUP 0 A     ****
@<TRIPOS>MOLECULE
MiniDrugBank_2
   26    26     1     0     0
SMALL
NO_CHARGES

@<TRIPOS>ATOM
      1 S1          2.6896   -3.0314    0.0000 S.3       1 <0>        0.00000
      2 S2          4.5311    0.7131    0.0000 S.3       1 <0>        0.00000
      3 O1          1.6500   -1.9918    0.0000 O.2       1 <0>        0.00000
      4 O2          4.5311   -0.9369    0.0000 O.2       1 <0>        0.00000
      5 O3          5.2455    2.7757    0.0000 O.3       1 <0>        0.00000
      6 O4          5.9601    1.5382    0.0000 O.2       1 <0>        0.00000
      7 N1          3.1022   -0.9369    0.0000 N.am      1 <0>        0.00000
      8 C1          3.1022   -1.7619    0.0000 C.3       1 <0>        0.00000
      9 C2          3.7696   -2.2469    0.0000 C.3       1 <0>        0.00000
     10 C3          3.5147   -3.0314    0.0000 C.3       1 <0>        0.00000
     11 C4          2.4347   -2.2469    0.0000 C.2       1 <0>        0.00000
     12 C5          3.8166   -0.5244    0.0000 C.2       1 <0>        0.00000
     13 C6          3.8166    0.3006    0.0000 C.3       1 <0>        0.00000
     14 C7          4.5311    1.5382    0.0000 C.3       1 <0>        0.00000
     15 C8          5.2455    1.9507    0.0000 C.2       1 <0>        0.00000
     16 H1          5.2455    2.7757    0.0000 H         1 <0>        0.00000
     17 H2          3.1022   -0.9369    0.0000 H         1 <0>        0.00000
     18 H3          3.1022   -1.7619    0.0000 H         1 <0>        0.00000
     19 H4          3.7696   -2.2469    0.0000 H         1 <0>        0.00000
     20 H5          3.7696   -2.2469    0.0000 H         1 <0>        0.00000
     21 H6          3.5147   -3.0314    0.0000 H         1 <0>        0.00000
     22 H7          3.5147   -3.0314    0.0000 H         1 <0>        0.00000
     23 H8          3.8166    0.3006    0.0000 H         1 <0>        0.00000
     24 H9          3.8166    0.3006    0.0000 H         1 <0>        0.00000
     25 H10         4.5311    1.5382    0.0000 H         1 <0>        0.00000
     26 H11         4.5311    1.5382    0.0000 H         1 <0>        0.00000
@<TRIPOS>BOND
     1    1   10 1
     2    1   11 1
     3    2   13 1
     4    2   14 1
     5    3   11 2
     6    4   12 2
     7    5   15 1
     8    6   15 2
     9    7    8 1
    10    7   12 am
    11    8    9 1
    12    8   11 1
    13    9   10 1
    14   12   13 1
    15   14   15 1
    16    5   16 1
    17    7   17 1
    18    8   18 1
    19    9   19 1
    20    9   20 1
    21   10   21 1
    22   10   22 1
    23   13   23 1
    24   13   24 1
    25   14   25 1
    26   14   26 1
@<TRIPOS>SUBSTRUCTURE
     1 <0>         1 GROUP 0 A     ****
@<TRIPOS>MOLECULE
MiniDrugBank_3
   43    45     1     0     0
SMALL
NO_CHARGES

@<TRIPOS>ATOM
      1 C1          0.0000    0.8250    0.0000 C.ar      1 <0>        0.00000
      2 C2          0.7145    0.4125    0.0000 C.ar      1 <0>        0.00000
      3 C3          0.7145   -0.4125    0.0000 C.ar      1 <0>        0.00000
      4 C4          0.0000   -0.8250    0.0000 C.ar      1 <0>        0.00000
      5 C5         -0.7145   -0.4125    0.0000 C.ar      1 <0>        0.00000
      6 C6         -0.7145    0.4125    0.0000 C.ar      1 <0>        0.00000
      7 N1          4.3974   -0.4125    0.0000 N.am      1 <0>        0.00000
      8 C7          4.3974    0.4125    0.0000 C.3       1 <0>        0.00000
      9 C8          3.5724   -0.4125    0.0000 C.2       1 <0>        0.00000
     10 C9          3.5724    0.4125    0.0000 C.3       1 <0>        0.00000
     11 C10         5.1820   -0.6674    0.0000 C.3       1 <0>        0.00000
     12 S1          5.1820    0.6674    0.0000 S.3       1 <0>        0.00000
     13 C11         5.6669    0.0000    0.0000 C.3       1 <0>        0.00000
     14 N2          2.8579    0.8250    0.0000 N.am      1 <0>        0.00000
     15 C12         2.1434    0.4125    0.0000 C.2       1 <0>        0.00000
     16 N3          0.7145    2.0625    0.0000 N.1       1 <0>        0.00000
     17 C13         1.4289    0.8250    0.0000 C.3       1 <0>        0.00000
     18 C14         5.4369   -1.4521    0.0000 C.2       1 <0>        0.00000
     19 N4          0.0000    2.4750    0.0000 N.1       1 <0>        0.00000
     20 N5          1.4289    1.6500    0.0000 N.2       1 <0>        0.00000
     21 O1          2.1434   -0.4125    0.0000 O.2       1 <0>        0.00000
     22 O2          6.2439   -1.6236    0.0000 O.3       1 <0>        0.00000
     23 O3          4.8849   -2.0652    0.0000 O.2       1 <0>        0.00000
     24 C15         6.3857   -0.4050    0.0000 C.3       1 <0>        0.00000
     25 C16         6.3857    0.4050    0.0000 C.3       1 <0>        0.00000
     26 H1          4.3974    1.2375    0.0000 H         1 <0>        0.00000
     27 O4          2.9890   -0.9959    0.0000 O.2       1 <0>        0.00000
     28 H2          0.0000    0.8250    0.0000 H         1 <0>        0.00000
     29 H3          0.7145   -0.4125    0.0000 H         1 <0>        0.00000
     30 H4          0.0000   -0.8250    0.0000 H         1 <0>        0.00000
     31 H5         -0.7145   -0.4125    0.0000 H         1 <0>        0.00000
     32 H6         -0.7145    0.4125    0.0000 H         1 <0>        0.00000
     33 H7          3.5724    0.4125    0.0000 H         1 <0>        0.00000
     34 H8          5.1820   -0.6674    0.0000 H         1 <0>        0.00000
     35 H9          2.8579    0.8250    0.0000 H         1 <0>        0.00000
     36 H10         1.4289    0.8250    0.0000 H         1 <0>        0.00000
     37 H11         6.2439   -1.6236    0.0000 H         1 <0>        0.00000
     38 H12         6.3857   -0.4050    0.0000 H         1 <0>        0.00000
     39 H13         6.3857   -0.4050    0.0000 H         1 <0>        0.00000
     40 H14         6.3857   -0.4050    0.0000 H         1 <0>        0.00000
     41 H15         6.3857    0.4050    0.0000 H         1 <0>        0.00000
     42 H16         6.3857    0.4050    0.0000 H         1 <0>        0.00000
     43 H17         6.3857    0.4050    0.0000 H         1 <0>        0.00000
@<TRIPOS>BOND
     1    1    2 ar
     2    2   17 1
     3    2    3 ar
     4    1    6 ar
     5    3    4 ar
     6    5    6 ar
     7    4    5 ar
     8    7    8 1
     9    7    9 am
    10    7   11 1
    11    8   12 1
    12    8   10 1
    13    9   10 1
    14   10   14 1
    15   11   13 1
    16   11   18 1
    17   12   13 1
    18   13   24 1
    19   13   25 1
    20   14   15 am
    21   15   17 1
    22   15   21 2
    23   16   20 2
    24   16   19 2
    25   17   20 1
    26   18   22 1
    27   18   23 2
    28    8   26 1
    29    9   27 2
    30    1   28 1
    31    3   29 1
    32    4   30 1
    33    5   31 1
    34    6   32 1
    35   10   33 1
    36   11   34 1
    37   14   35 1
    38   17   36 1
    39   22   37 1
    40   24   38 1
    41   24   39 1
    42   24   40 1
    43   25   41 1
    44   25   42 1
    45   25   43 1
@<TRIPOS>SUBSTRUCTURE
     1 <0>         1 GROUP 0 A     ****
@<TRIPOS>MOLECULE
MiniDrugBank_4
   51    54     1     0     0
SMALL
NO_CHARGES

@<TRIPOS>ATOM
      1 Br1         8.6275    0.3477    0.0000 Br        1 <0>        0.00000
      2 O1          2.0917   -1.7578    0.0000 O.3       1 <0>        0.00000
      3 O2          7.5775    1.7956    0.0000 O.2       1 <0>        0.00000
      4 C1          5.1119   -0.0648    0.0000 C.3       1 <0>        0.00000
      5 C2          4.3612   -0.4829    0.0000 C.3       1 <0>        0.00000
      6 C3          5.8262   -0.4772    0.0000 C.3       1 <0>        0.00000
      7 C4          6.5406   -0.0648    0.0000 C.3       1 <0>        0.00000
      8 C5          4.3545   -1.3421    0.0000 C.3       1 <0>        0.00000
      9 C6          6.5406    0.7602    0.0000 C.3       1 <0>        0.00000
     10 C7          5.1119    0.7602    0.0000 C.3       1 <0>        0.00000
     11 C8          5.8395   -1.3363    0.0000 C.3       1 <0>        0.00000
     12 C9          5.8262    1.1727    0.0000 C.3       1 <0>        0.00000
     13 C10         5.0987   -1.7718    0.0000 C.3       1 <0>        0.00000
     14 C11         3.5966   -0.0176    0.0000 C.3       1 <0>        0.00000
     15 C12         7.3211   -0.3162    0.0000 C.3       1 <0>        0.00000
     16 C13         3.5829   -1.7956    0.0000 C.3       1 <0>        0.00000
     17 C14         4.3676    0.3421    0.0000 C.3       1 <0>        0.00000
     18 C15         7.3211    1.0115    0.0000 C.2       1 <0>        0.00000
     19 C16         7.8026    0.3477    0.0000 C.3       1 <0>        0.00000
     20 C17         2.8147   -0.4531    0.0000 C.3       1 <0>        0.00000
     21 C18         2.8078   -1.3480    0.0000 C.3       1 <0>        0.00000
     22 C19         6.5406    1.5851    0.0000 C.3       1 <0>        0.00000
     23 H1          5.6833    0.2652    0.0000 H         1 <0>        0.00000
     24 H2          6.4003   -0.8028    0.0000 H         1 <0>        0.00000
     25 H3          6.6105   -0.7210    0.0000 H         1 <0>        0.00000
     26 H4          4.3571   -2.0021    0.0000 H         1 <0>        0.00000
     27 H5          2.0917   -1.7578    0.0000 H         1 <0>        0.00000
     28 H6          5.1119    0.7602    0.0000 H         1 <0>        0.00000
     29 H7          5.1119    0.7602    0.0000 H         1 <0>        0.00000
     30 H8          5.8395   -1.3363    0.0000 H         1 <0>        0.00000
     31 H9          5.8395   -1.3363    0.0000 H         1 <0>        0.00000
     32 H10         5.8262    1.1727    0.0000 H         1 <0>        0.00000
     33 H11         5.8262    1.1727    0.0000 H         1 <0>        0.00000
     34 H12         5.0987   -1.7718    0.0000 H         1 <0>        0.00000
     35 H13         5.0987   -1.7718    0.0000 H         1 <0>        0.00000
     36 H14         3.5966   -0.0176    0.0000 H         1 <0>        0.00000
     37 H15         3.5966   -0.0176    0.0000 H         1 <0>        0.00000
     38 H16         7.3211   -0.3162    0.0000 H         1 <0>        0.00000
     39 H17         7.3211   -0.3162    0.0000 H         1 <0>        0.00000
     40 H18         3.5829   -1.7956    0.0000 H         1 <0>        0.00000
     41 H19         3.5829   -1.7956    0.0000 H         1 <0>        0.00000
     42 H20         4.3676    0.3421    0.0000 H         1 <0>        0.00000
     43 H21         4.3676    0.3421    0.0000 H         1 <0>        0.00000
     44 H22         4.3676    0.3421    0.0000 H         1 <0>        0.00000
     45 H23         7.8026    0.3477    0.0000 H         1 <0>        0.00000
     46 H24         2.8147   -0.4531    0.0000 H         1 <0>        0.00000
     47 H25         2.8147   -0.4531    0.0000 H         1 <0>        0.00000
     48 H26         2.8078   -1.3480    0.0000 H         1 <0>        0.00000
     49 H27         6.5406    1.5851    0.0000 H         1 <0>        0.00000
     50 H28         6.5406    1.5851    0.0000 H         1 <0>        0.00000
     51 H29         6.5406    1.5851    0.0000 H         1 <0>        0.00000
@<TRIPOS>BOND
     1    1   19 1
     2    2   21 1
     3    3   18 2
     4    4    5 1
     5    4    6 1
     6    4   10 1
     7    4   23 1
     8    5    8 1
     9    5   14 1
    10    5   17 1
    11    6    7 1
    12    6   11 1
    13    6   24 1
    14    7    9 1
    15    7   15 1
    16    7   25 1
    17    8   13 1
    18    8   16 1
    19    8   26 1
    20    9   12 1
    21    9   18 1
    22    9   22 1
    23   10   12 1
    24   11   13 1
    25   14   20 1
    26   15   19 1
    27   16   21 1
    28   18   19 1
    29   20   21 1
    30    2   27 1
    31   10   28 1
    32   10   29 1
    33   11   30 1
    34   11   31 1
    35   12   32 1
    36   12   33 1
    37   13   34 1
    38   13   35 1
    39   14   36 1
    40   14   37 1
    41   15   38 1
    42   15   39 1
    43   16   40 1
    44   16   41 1
    45   17   42 1
    46   17   43 1
    47   17   44 1
    48   19   45 1
    49   20   46 1
    50   20   47 1
    51   21   48 1
    52   22   49 1
    53   22   50 1
    54   22   51 1
@<TRIPOS>SUBSTRUCTURE
     1 <0>         1 GROUP 0 A     ****
@<TRIPOS>MOLECULE
MiniDrugBank_5
   71    77     1     0     0
SMALL
NO_CHARGES

@<TRIPOS>ATOM
      1 O1          0.1278    0.0746    0.0000 O.2       1 <0>        0.00000
      2 C1         -0.0288   -0.7354    0.0000 C.2       1 <0>        0.00000
      3 N1         -0.7762   -1.0848    0.0000 N.am      1 <0>        0.00000
      4 C2         -0.6749   -1.9036    0.0000 C.2       1 <0>        0.00000
      5 O2         -1.2777   -2.4668    0.0000 O.2       1 <0>        0.00000
      6 C3          0.1351   -2.0602    0.0000 C.3       1 <0>        0.00000
      7 C4          0.5344   -1.3383    0.0000 C.3       1 <0>        0.00000
      8 C5          1.1407   -0.9495    0.0000 C.3       1 <0>        0.00000
      9 C6          1.9362   -1.4148    0.0000 C.3       1 <0>        0.00000
     10 C7          1.6411   -2.0402    0.0000 C.3       1 <0>        0.00000
     11 C8          0.9106   -1.6699    0.0000 C.3       1 <0>        0.00000
     12 C9          0.9807   -0.1341    0.0000 C.3       1 <0>        0.00000
     13 C10        -1.4982   -0.6855    0.0000 C.3       1 <0>        0.00000
     14 C11        -2.2049   -1.1111    0.0000 C.3       1 <0>        0.00000
     15 C12        -2.1897   -1.9360    0.0000 C.3       1 <0>        0.00000
     16 C13        -2.8965   -2.3615    0.0000 C.3       1 <0>        0.00000
     17 C14        -3.6184   -1.9623    0.0000 C.3       1 <0>        0.00000
     18 C15        -3.6336   -1.1374    0.0000 C.3       1 <0>        0.00000
     19 C16        -2.9269   -0.7118    0.0000 C.3       1 <0>        0.00000
     20 C17        -2.9420    0.1130    0.0000 C.3       1 <0>        0.00000
     21 N2         -2.2353    0.5386    0.0000 N.3       1 <0>        0.00000
     22 C18        -2.2505    1.3635    0.0000 C.3       1 <0>        0.00000
     23 C19        -1.5437    1.7891    0.0000 C.3       1 <0>        0.00000
     24 N3         -0.8218    1.3898    0.0000 N.pl3     1 <0>        0.00000
     25 C20        -0.1150    1.8154    0.0000 C.ar      1 <0>        0.00000
     26 N4         -0.0439    2.6373    0.0000 N.ar      1 <0>        0.00000
     27 S1          0.7598    2.8236    0.0000 S.3       1 <0>        0.00000
     28 C21         1.1854    2.1169    0.0000 C.ar      1 <0>        0.00000
     29 C22         1.9954    1.9602    0.0000 C.ar      1 <0>        0.00000
     30 C23         2.2647    1.1804    0.0000 C.ar      1 <0>        0.00000
     31 C24         1.7240    0.5573    0.0000 C.ar      1 <0>        0.00000
     32 C25         0.9141    0.7139    0.0000 C.ar      1 <0>        0.00000
     33 C26         0.6447    1.4937    0.0000 C.ar      1 <0>        0.00000
     34 C27        -0.8066    0.5649    0.0000 C.3       1 <0>        0.00000
     35 C28        -1.5133    0.1393    0.0000 C.3       1 <0>        0.00000
     36 H1          0.1351   -2.0602    0.0000 H         1 <0>        0.00000
     37 H2          0.5344   -1.3383    0.0000 H         1 <0>        0.00000
     38 H3          1.1407   -0.9495    0.0000 H         1 <0>        0.00000
     39 H4          1.9362   -1.4148    0.0000 H         1 <0>        0.00000
     40 H5          1.9362   -1.4148    0.0000 H         1 <0>        0.00000
     41 H6          1.6411   -2.0402    0.0000 H         1 <0>        0.00000
     42 H7          1.6411   -2.0402    0.0000 H         1 <0>        0.00000
     43 H8          0.9106   -1.6699    0.0000 H         1 <0>        0.00000
     44 H9          0.9807   -0.1341    0.0000 H         1 <0>        0.00000
     45 H10         0.9807   -0.1341    0.0000 H         1 <0>        0.00000
     46 H11        -1.4982   -0.6855    0.0000 H         1 <0>        0.00000
     47 H12        -1.4982   -0.6855    0.0000 H         1 <0>        0.00000
     48 H13        -2.2049   -1.1111    0.0000 H         1 <0>        0.00000
     49 H14        -2.1897   -1.9360    0.0000 H         1 <0>        0.00000
     50 H15        -2.1897   -1.9360    0.0000 H         1 <0>        0.00000
     51 H16        -2.8965   -2.3615    0.0000 H         1 <0>        0.00000
     52 H17        -2.8965   -2.3615    0.0000 H         1 <0>        0.00000
     53 H18        -3.6184   -1.9623    0.0000 H         1 <0>        0.00000
     54 H19        -3.6184   -1.9623    0.0000 H         1 <0>        0.00000
     55 H20        -3.6336   -1.1374    0.0000 H         1 <0>        0.00000
     56 H21        -3.6336   -1.1374    0.0000 H         1 <0>        0.00000
     57 H22        -2.9269   -0.7118    0.0000 H         1 <0>        0.00000
     58 H23        -2.9420    0.1130    0.0000 H         1 <0>        0.00000
     59 H24        -2.9420    0.1130    0.0000 H         1 <0>        0.00000
     60 H25        -2.2505    1.3635    0.0000 H         1 <0>        0.00000
     61 H26        -2.2505    1.3635    0.0000 H         1 <0>        0.00000
     62 H27        -1.5437    1.7891    0.0000 H         1 <0>        0.00000
     63 H28        -1.5437    1.7891    0.0000 H         1 <0>        0.00000
     64 H29         1.9954    1.9602    0.0000 H         1 <0>        0.00000
     65 H30         2.2647    1.1804    0.0000 H         1 <0>        0.00000
     66 H31         1.7240    0.5573    0.0000 H         1 <0>        0.00000
     67 H32         0.9141    0.7139    0.0000 H         1 <0>        0.00000
     68 H33        -0.8066    0.5649    0.0000 H         1 <0>        0.00000
     69 H34        -0.8066    0.5649    0.0000 H         1 <0>        0.00000
     70 H35        -1.5133    0.1393    0.0000 H         1 <0>        0.00000
     71 H36        -1.5133    0.1393    0.0000 H         1 <0>        0.00000
@<TRIPOS>BOND
     1    1    2 2
     2    2    3 am
     3    3    4 am
     4    4    5 2
     5    4    6 1
     6    6    7 1
     7    2    7 1
     8    7    8 1
     9    8    9 1
    10    9   10 1
    11   10   11 1
    12    6   11 1
    13   11   12 1
    14    8   12 1
    15    3   13 1
    16   13   14 1
    17   14   15 1
    18   15   16 1
    19   16   17 1
    20   17   18 1
    21   18   19 1
    22   14   19 1
    23   19   20 1
    24   20   21 1
    25   21   22 1
    26   22   23 1
    27   23   24 1
    28   24   25 1
    29   25   26 2
    30   26   27 1
    31   27   28 1
    32   28   29 ar
    33   29   30 ar
    34   30   31 ar
    35   31   32 ar
    36   32   33 ar
    37   28   33 ar
    38   25   33 1
    39   24   34 1
    40   34   35 1
    41   21   35 1
    42    6   36 1
    43    7   37 1
    44    8   38 1
    45    9   39 1
    46    9   40 1
    47   10   41 1
    48   10   42 1
    49   11   43 1
    50   12   44 1
    51   12   45 1
    52   13   46 1
    53   13   47 1
    54   14   48 1
    55   15   49 1
    56   15   50 1
    57   16   51 1
    58   16   52 1
    59   17   53 1
    60   17   54 1
    61   18   55 1
    62   18   56 1
    63   19   57 1
    64   20   58 1
    65   20   59 1
    66   22   60 1
    67   22   61 1
    68   23   62 1
    69   23   63 1
    70   29   64 1
    71   30   65 1
    72   31   66 1
    73   32   67 1
    74   34   68 1
    75   34   69 1
    76   35   70 1
    77   35   71 1
@<TRIPOS>SUBSTRUCTURE
     1 <0>         1 GROUP 0 A     ****
@<TRIPOS>MOLECULE
MiniDrugBank_6
   55    57     1     0     0
SMALL
NO_CHARGES

@<TRIPOS>ATOM
      1 C1          4.2868   -2.4750    0.0000 C.3       1 <0>        0.00000
      2 N1          4.2868   -1.6500    0.0000 N.3       1 <0>        0.00000
      3 C2          3.5724   -1.2375    0.0000 C.3       1 <0>        0.00000
      4 C3          2.8579   -1.6500    0.0000 C.3       1 <0>        0.00000
      5 C4          2.1434   -1.2375    0.0000 C.3       1 <0>        0.00000
      6 C5          1.4289   -1.6500    0.0000 C.3       1 <0>        0.00000
      7 C6          0.7145   -1.2375    0.0000 C.3       1 <0>        0.00000
      8 C7          0.0000   -1.6500    0.0000 C.3       1 <0>        0.00000
      9 O1         -0.7145   -1.2375    0.0000 O.3       1 <0>        0.00000
     10 C8         -1.4289   -1.6500    0.0000 C.ar      1 <0>        0.00000
     11 C9         -1.4289   -2.4750    0.0000 C.ar      1 <0>        0.00000
     12 C10        -2.1434   -2.8875    0.0000 C.ar      1 <0>        0.00000
     13 C11        -2.8579   -2.4750    0.0000 C.ar      1 <0>        0.00000
     14 C12        -2.8579   -1.6500    0.0000 C.ar      1 <0>        0.00000
     15 S1         -3.6425   -1.3951    0.0000 S.3       1 <0>        0.00000
     16 N2         -4.1274   -2.0625    0.0000 N.ar      1 <0>        0.00000
     17 C13        -3.6425   -2.7299    0.0000 C.ar      1 <0>        0.00000
     18 C14        -3.8974   -3.5146    0.0000 C.ar      1 <0>        0.00000
     19 C15        -3.3454   -4.1277    0.0000 C.ar      1 <0>        0.00000
     20 C16        -3.6004   -4.9123    0.0000 C.ar      1 <0>        0.00000
     21 C17        -4.4073   -5.0838    0.0000 C.ar      1 <0>        0.00000
     22 Br1        -4.6623   -5.8684    0.0000 Br        1 <0>        0.00000
     23 C18        -4.9594   -4.4707    0.0000 C.ar      1 <0>        0.00000
     24 C19        -4.7044   -3.6861    0.0000 C.ar      1 <0>        0.00000
     25 C20        -2.1434   -1.2375    0.0000 C.ar      1 <0>        0.00000
     26 C21         5.0013   -1.2375    0.0000 C.3       1 <0>        0.00000
     27 C22         5.7158   -1.6500    0.0000 C.2       1 <0>        0.00000
     28 C23         6.4302   -1.2375    0.0000 C.2       1 <0>        0.00000
     29 H1          4.2868   -2.4750    0.0000 H         1 <0>        0.00000
     30 H2          4.2868   -2.4750    0.0000 H         1 <0>        0.00000
     31 H3          4.2868   -2.4750    0.0000 H         1 <0>        0.00000
     32 H4          3.5724   -1.2375    0.0000 H         1 <0>        0.00000
     33 H5          3.5724   -1.2375    0.0000 H         1 <0>        0.00000
     34 H6          2.8579   -1.6500    0.0000 H         1 <0>        0.00000
     35 H7          2.8579   -1.6500    0.0000 H         1 <0>        0.00000
     36 H8          2.1434   -1.2375    0.0000 H         1 <0>        0.00000
     37 H9          2.1434   -1.2375    0.0000 H         1 <0>        0.00000
     38 H10         1.4289   -1.6500    0.0000 H         1 <0>        0.00000
     39 H11         1.4289   -1.6500    0.0000 H         1 <0>        0.00000
     40 H12         0.7145   -1.2375    0.0000 H         1 <0>        0.00000
     41 H13         0.7145   -1.2375    0.0000 H         1 <0>        0.00000
     42 H14         0.0000   -1.6500    0.0000 H         1 <0>        0.00000
     43 H15         0.0000   -1.6500    0.0000 H         1 <0>        0.00000
     44 H16        -1.4289   -2.4750    0.0000 H         1 <0>        0.00000
     45 H17        -2.1434   -2.8875    0.0000 H         1 <0>        0.00000
     46 H18        -3.3454   -4.1277    0.0000 H         1 <0>        0.00000
     47 H19        -3.6004   -4.9123    0.0000 H         1 <0>        0.00000
     48 H20        -4.9594   -4.4707    0.0000 H         1 <0>        0.00000
     49 H21        -4.7044   -3.6861    0.0000 H         1 <0>        0.00000
     50 H22        -2.1434   -1.2375    0.0000 H         1 <0>        0.00000
     51 H23         5.0013   -1.2375    0.0000 H         1 <0>        0.00000
     52 H24         5.0013   -1.2375    0.0000 H         1 <0>        0.00000
     53 H25         5.7158   -1.6500    0.0000 H         1 <0>        0.00000
     54 H26         6.4302   -1.2375    0.0000 H         1 <0>        0.00000
     55 H27         6.4302   -1.2375    0.0000 H         1 <0>        0.00000
@<TRIPOS>BOND
     1    1    2 1
     2    2    3 1
     3    3    4 1
     4    4    5 1
     5    5    6 1
     6    6    7 1
     7    7    8 1
     8    8    9 1
     9    9   10 1
    10   10   11 ar
    11   11   12 ar
    12   12   13 ar
    13   13   14 ar
    14   14   15 1
    15   15   16 1
    16   16   17 2
    17   13   17 1
    18   17   18 1
    19   18   19 ar
    20   19   20 ar
    21   20   21 ar
    22   21   22 1
    23   21   23 ar
    24   23   24 ar
    25   18   24 ar
    26   14   25 ar
    27   10   25 ar
    28    2   26 1
    29   26   27 1
    30   27   28 2
    31    1   29 1
    32    1   30 1
    33    1   31 1
    34    3   32 1
    35    3   33 1
    36    4   34 1
    37    4   35 1
    38    5   36 1
    39    5   37 1
    40    6   38 1
    41    6   39 1
    42    7   40 1
    43    7   41 1
    44    8   42 1
    45    8   43 1
    46   11   44 1
    47   12   45 1
    48   19   46 1
    49   20   47 1
    50   23   48 1
    51   24   49 1
    52   25   50 1
    53   26   51 1
    54   26   52 1
    55   27   53 1
    56   28   54 1
    57   28   55 1
@<TRIPOS>SUBSTRUCTURE
     1 <0>         1 GROUP 0 A     ****
@<TRIPOS>MOLECULE
MiniDrugBank_7
   46    48     1     0     0
SMALL
NO_CHARGES

@<TRIPOS>ATOM
      1 F1         -7.7491    5.2741    0.0000 F         1 <0>        0.00000
      2 C1         -7.1657    4.6907    0.0000 C.3       1 <0>        0.00000
      3 C2         -6.3407    4.6907    0.0000 C.3       1 <0>        0.00000
      4 C3         -5.7574    4.1074    0.0000 C.3       1 <0>        0.00000
      5 N1         -4.9324    4.1074    0.0000 N.3       1 <0>        0.00000
      6 C4         -4.7189    3.3105    0.0000 C.3       1 <0>        0.00000
      7 C5         -4.0706    3.5770    0.0000 C.3       1 <0>        0.00000
      8 C6         -4.9324    2.5136    0.0000 C.3       1 <0>        0.00000
      9 C7         -4.1355    2.7271    0.0000 C.3       1 <0>        0.00000
     10 C8         -3.4814    3.3105    0.0000 C.3       1 <0>        0.00000
     11 C9         -2.6328    2.6093    0.0000 C.3       1 <0>        0.00000
     12 C10        -2.8331    3.5770    0.0000 C.3       1 <0>        0.00000
     13 C11        -2.2497    4.1604    0.0000 C.2       1 <0>        0.00000
     14 O1         -2.6622    4.8749    0.0000 O.2       1 <0>        0.00000
     15 O2         -1.4247    4.1604    0.0000 O.3       1 <0>        0.00000
     16 C12        -1.0122    4.8749    0.0000 C.3       1 <0>        0.00000
     17 C13        -1.8078    2.6093    0.0000 C.ar      1 <0>        0.00000
     18 C14        -1.3953    1.8948    0.0000 C.ar      1 <0>        0.00000
     19 C15        -0.5703    1.8948    0.0000 C.ar      1 <0>        0.00000
     20 C16        -0.1578    2.6093    0.0000 C.ar      1 <0>        0.00000
     21 C17        -0.5703    3.3237    0.0000 C.ar      1 <0>        0.00000
     22 C18        -1.3953    3.3237    0.0000 C.ar      1 <0>        0.00000
     23 I1          0.6672    2.6093    0.0000 I         1 <0>        0.00000
     24 H1         -7.1657    4.6907    0.0000 H         1 <0>        0.00000
     25 H2         -7.1657    4.6907    0.0000 H         1 <0>        0.00000
     26 H3         -6.3407    4.6907    0.0000 H         1 <0>        0.00000
     27 H4         -6.3407    4.6907    0.0000 H         1 <0>        0.00000
     28 H5         -5.7574    4.1074    0.0000 H         1 <0>        0.00000
     29 H6         -5.7574    4.1074    0.0000 H         1 <0>        0.00000
     30 H7         -4.7189    3.3105    0.0000 H         1 <0>        0.00000
     31 H8         -4.0706    3.5770    0.0000 H         1 <0>        0.00000
     32 H9         -4.9324    2.5136    0.0000 H         1 <0>        0.00000
     33 H10        -4.9324    2.5136    0.0000 H         1 <0>        0.00000
     34 H11        -4.1355    2.7271    0.0000 H         1 <0>        0.00000
     35 H12        -4.1355    2.7271    0.0000 H         1 <0>        0.00000
     36 H13        -3.4814    3.3105    0.0000 H         1 <0>        0.00000
     37 H14        -3.4814    3.3105    0.0000 H         1 <0>        0.00000
     38 H15        -2.6328    2.6093    0.0000 H         1 <0>        0.00000
     39 H16        -2.8331    3.5770    0.0000 H         1 <0>        0.00000
     40 H17        -1.0122    4.8749    0.0000 H         1 <0>        0.00000
     41 H18        -1.0122    4.8749    0.0000 H         1 <0>        0.00000
     42 H19        -1.0122    4.8749    0.0000 H         1 <0>        0.00000
     43 H20        -1.3953    1.8948    0.0000 H         1 <0>        0.00000
     44 H21        -0.5703    1.8948    0.0000 H         1 <0>        0.00000
     45 H22        -0.5703    3.3237    0.0000 H         1 <0>        0.00000
     46 H23        -1.3953    3.3237    0.0000 H         1 <0>        0.00000
@<TRIPOS>BOND
     1    1    2 1
     2    2    3 1
     3    3    4 1
     4    4    5 1
     5    5    6 1
     6    5    7 1
     7    6    8 1
     8    8    9 1
     9    7    9 1
    10    6   10 1
    11   10   11 1
    12    7   12 1
    13   11   12 1
    14   12   13 1
    15   13   14 2
    16   13   15 1
    17   15   16 1
    18   11   17 1
    19   17   18 ar
    20   17   22 ar
    21   18   19 ar
    22   19   20 ar
    23   20   21 ar
    24   21   22 ar
    25   20   23 1
    26    2   24 1
    27    2   25 1
    28    3   26 1
    29    3   27 1
    30    4   28 1
    31    4   29 1
    32    6   30 1
    33    7   31 1
    34    8   32 1
    35    8   33 1
    36    9   34 1
    37    9   35 1
    38   10   36 1
    39   10   37 1
    40   11   38 1
    41   12   39 1
    42   16   40 1
    43   16   41 1
    44   16   42 1
    45   18   43 1
    46   19   44 1
    47   21   45 1
    48   22   46 1
@<TRIPOS>SUBSTRUCTURE
     1 <0>         1 GROUP 0 A     ****
@<TRIPOS>MOLECULE
PU1
   51    53     1     0     0
SMALL
NO_CHARGES

@<TRIPOS>ATOM
      1 Cl1         0.3038   -2.2271    0.0000 Cl        1 <0>        0.00000
      2 C1         -0.3093   -1.6751    0.0000 C.ar      1 <0>        0.00000
      3 C2         -1.0939   -1.9300    0.0000 C.ar      1 <0>        0.00000
      4 O1         -1.2654   -2.7370    0.0000 O.3       1 <0>        0.00000
      5 C3         -2.0500   -2.9919    0.0000 C.3       1 <0>        0.00000
      6 C4         -1.7070   -1.3780    0.0000 C.ar      1 <0>        0.00000
      7 O2         -2.4916   -1.6329    0.0000 O.3       1 <0>        0.00000
      8 C5         -3.1047   -1.0809    0.0000 C.3       1 <0>        0.00000
      9 C6         -1.5354   -0.5710    0.0000 C.ar      1 <0>        0.00000
     10 O3         -2.1485   -0.0190    0.0000 O.3       1 <0>        0.00000
     11 C7         -1.9770    0.7880    0.0000 C.3       1 <0>        0.00000
     12 C8         -0.7508   -0.3161    0.0000 C.ar      1 <0>        0.00000
     13 C9         -0.1377   -0.8681    0.0000 C.ar      1 <0>        0.00000
     14 C10         0.6469   -0.6132    0.0000 C.3       1 <0>        0.00000
     15 C11         0.8184    0.1938    0.0000 C.ar      1 <0>        0.00000
     16 N1          0.2664    0.8069    0.0000 N.ar      1 <0>        0.00000
     17 C12         0.6789    1.5214    0.0000 C.ar      1 <0>        0.00000
     18 C13         0.4239    2.3060    0.0000 C.ar      1 <0>        0.00000
     19 N2         -0.3830    2.4775    0.0000 N.pl3     1 <0>        0.00000
     20 C14         1.4859    1.3498    0.0000 C.ar      1 <0>        0.00000
     21 N3          2.0379    1.9629    0.0000 N.ar      1 <0>        0.00000
     22 C15         1.7830    2.7476    0.0000 C.ar      1 <0>        0.00000
     23 N4          0.9760    2.9191    0.0000 N.ar      1 <0>        0.00000
     24 N5          1.5721    0.5294    0.0000 N.pl3     1 <0>        0.00000
     25 C16         2.2866    0.1169    0.0000 C.3       1 <0>        0.00000
     26 C17         3.0010    0.5294    0.0000 C.3       1 <0>        0.00000
     27 C18         3.7155    0.1169    0.0000 C.3       1 <0>        0.00000
     28 C19         4.4300    0.5294    0.0000 C.1       1 <0>        0.00000
     29 C20         5.1444    0.9419    0.0000 C.1       1 <0>        0.00000
     30 F1          2.3350    3.3607    0.0000 F         1 <0>        0.00000
     31 H1         -2.0500   -2.9919    0.0000 H         1 <0>        0.00000
     32 H2         -2.0500   -2.9919    0.0000 H         1 <0>        0.00000
     33 H3         -2.0500   -2.9919    0.0000 H         1 <0>        0.00000
     34 H4         -3.1047   -1.0809    0.0000 H         1 <0>        0.00000
     35 H5         -3.1047   -1.0809    0.0000 H         1 <0>        0.00000
     36 H6         -3.1047   -1.0809    0.0000 H         1 <0>        0.00000
     37 H7         -1.9770    0.7880    0.0000 H         1 <0>        0.00000
     38 H8         -1.9770    0.7880    0.0000 H         1 <0>        0.00000
     39 H9         -1.9770    0.7880    0.0000 H         1 <0>        0.00000
     40 H10        -0.7508   -0.3161    0.0000 H         1 <0>        0.00000
     41 H11         0.6469   -0.6132    0.0000 H         1 <0>        0.00000
     42 H12         0.6469   -0.6132    0.0000 H         1 <0>        0.00000
     43 H13        -0.3830    2.4775    0.0000 H         1 <0>        0.00000
     44 H14        -0.3830    2.4775    0.0000 H         1 <0>        0.00000
     45 H15         2.2866    0.1169    0.0000 H         1 <0>        0.00000
     46 H16         2.2866    0.1169    0.0000 H         1 <0>        0.00000
     47 H17         3.0010    0.5294    0.0000 H         1 <0>        0.00000
     48 H18         3.0010    0.5294    0.0000 H         1 <0>        0.00000
     49 H19         3.7155    0.1169    0.0000 H         1 <0>        0.00000
     50 H20         3.7155    0.1169    0.0000 H         1 <0>        0.00000
     51 H21         5.1444    0.9419    0.0000 H         1 <0>        0.00000
@<TRIPOS>BOND
     1    1    2 1
     2    2    3 ar
     3    2   13 ar
     4    3    4 1
     5    3    6 ar
     6    4    5 1
     7    6    7 1
     8    6    9 ar
     9    7    8 1
    10    9   10 1
    11    9   12 ar
    12   10   11 1
    13   12   13 ar
    14   13   14 1
    15   14   15 1
    16   15   16 2
    17   15   24 1
    18   16   17 1
    19   17   18 ar
    20   17   20 ar
    21   18   19 1
    22   18   23 ar
    23   20   21 ar
    24   20   24 1
    25   21   22 ar
    26   22   23 ar
    27   22   30 1
    28   24   25 1
    29   25   26 1
    30   26   27 1
    31   27   28 1
    32   28   29 3
    33    5   31 1
    34    5   32 1
    35    5   33 1
    36    8   34 1
    37    8   35 1
    38    8   36 1
    39   11   37 1
    40   11   38 1
    41   11   39 1
    42   12   40 1
    43   14   41 1
    44   14   42 1
    45   19   43 1
    46   19   44 1
    47   25   45 1
    48   25   46 1
    49   26   47 1
    50   26   48 1
    51   27   49 1
    52   27   50 1
    53   29   51 1
@<TRIPOS>SUBSTRUCTURE
     1 <0>         1 GROUP 0 A     ****
@<TRIPOS>MOLECULE
MiniDrugBank_9
   55    58     1     0     0
SMALL
NO_CHARGES

@<TRIPOS>ATOM
      1 C1         -1.4289    7.4250    0.0000 C.ar      1 <0>        0.00000
      2 C2         -2.1434    7.0125    0.0000 C.ar      1 <0>        0.00000
      3 C3         -0.7145    7.0125    0.0000 C.ar      1 <0>        0.00000
      4 C4         -2.1434    6.1875    0.0000 C.ar      1 <0>        0.00000
      5 C5         -1.1270    2.9980    0.0000 C.3       1 <0>        0.00000
      6 C6         -0.3020    2.9980    0.0000 C.3       1 <0>        0.00000
      7 C7          1.4289    5.7750    0.0000 C.ar      1 <0>        0.00000
      8 C8          0.7145    7.0125    0.0000 C.ar      1 <0>        0.00000
      9 C9          2.1434    6.1875    0.0000 C.ar      1 <0>        0.00000
     10 C10         1.4289    7.4250    0.0000 C.ar      1 <0>        0.00000
     11 C11         0.7145    3.7125    0.0000 C.2       1 <0>        0.00000
     12 C12         0.7145    4.5375    0.0000 C.2       1 <0>        0.00000
     13 C13         2.1434    3.7125    0.0000 C.3       1 <0>        0.00000
     14 C14         3.5724    3.7125    0.0000 C.3       1 <0>        0.00000
     15 C15         0.7145    6.1875    0.0000 C.ar      1 <0>        0.00000
     16 C16        -0.7145    3.7125    0.0000 C.3       1 <0>        0.00000
     17 C17         2.1434    7.0125    0.0000 C.ar      1 <0>        0.00000
     18 C18         1.4289    3.3000    0.0000 C.3       1 <0>        0.00000
     19 C19         2.8579    3.3000    0.0000 C.3       1 <0>        0.00000
     20 C20        -0.7145    6.1875    0.0000 C.ar      1 <0>        0.00000
     21 C21         0.0000    4.9500    0.0000 C.ar      1 <0>        0.00000
     22 C22        -1.4289    5.7750    0.0000 C.ar      1 <0>        0.00000
     23 C23         4.2868    3.3000    0.0000 C.2       1 <0>        0.00000
     24 C24         0.0000    5.7750    0.0000 C.ar      1 <0>        0.00000
     25 C25        -0.7145    4.5375    0.0000 C.ar      1 <0>        0.00000
     26 F1          2.8579    7.4250    0.0000 F         1 <0>        0.00000
     27 N1         -1.4289    4.9500    0.0000 N.ar      1 <0>        0.00000
     28 O1          1.4289    2.4750    0.0000 O.3       1 <0>        0.00000
     29 O2          2.8579    2.4750    0.0000 O.3       1 <0>        0.00000
     30 O3          5.0013    3.7125    0.0000 O.2       1 <0>        0.00000
     31 O4          4.2868    2.4750    0.0000 O.3       1 <0>        0.00000
     32 H1         -1.4289    7.4250    0.0000 H         1 <0>        0.00000
     33 H2         -2.1434    7.0125    0.0000 H         1 <0>        0.00000
     34 H3         -0.7145    7.0125    0.0000 H         1 <0>        0.00000
     35 H4         -2.1434    6.1875    0.0000 H         1 <0>        0.00000
     36 H5         -1.1270    2.9980    0.0000 H         1 <0>        0.00000
     37 H6         -1.1270    2.9980    0.0000 H         1 <0>        0.00000
     38 H7         -0.3020    2.9980    0.0000 H         1 <0>        0.00000
     39 H8         -0.3020    2.9980    0.0000 H         1 <0>        0.00000
     40 H9          1.4289    5.7750    0.0000 H         1 <0>        0.00000
     41 H10         0.7145    7.0125    0.0000 H         1 <0>        0.00000
     42 H11         2.1434    6.1875    0.0000 H         1 <0>        0.00000
     43 H12         1.4289    7.4250    0.0000 H         1 <0>        0.00000
     44 H13         0.7145    3.7125    0.0000 H         1 <0>        0.00000
     45 H14         0.7145    4.5375    0.0000 H         1 <0>        0.00000
     46 H15         2.1434    3.7125    0.0000 H         1 <0>        0.00000
     47 H16         2.1434    3.7125    0.0000 H         1 <0>        0.00000
     48 H17         3.5724    3.7125    0.0000 H         1 <0>        0.00000
     49 H18         3.5724    3.7125    0.0000 H         1 <0>        0.00000
     50 H19        -0.7145    3.7125    0.0000 H         1 <0>        0.00000
     51 H20         1.4289    3.3000    0.0000 H         1 <0>        0.00000
     52 H21         2.8579    3.3000    0.0000 H         1 <0>        0.00000
     53 H22         1.4289    2.4750    0.0000 H         1 <0>        0.00000
     54 H23         2.8579    2.4750    0.0000 H         1 <0>        0.00000
     55 H24         4.2868    2.4750    0.0000 H         1 <0>        0.00000
@<TRIPOS>BOND
     1    1    2 ar
     2    1    3 ar
     3    2    4 ar
     4    5    6 1
     5    7    9 ar
     6    8   10 ar
     7   11   12 2
     8    7   15 ar
     9    8   15 ar
    10    5   16 1
    11    6   16 1
    12    9   17 ar
    13   10   17 ar
    14   11   18 1
    15   13   18 1
    16   13   19 1
    17   14   19 1
    18    3   20 ar
    19   12   21 1
    20    4   22 ar
    21   20   22 ar
    22   14   23 1
    23   15   24 1
    24   20   24 ar
    25   21   24 ar
    26   16   25 1
    27   21   25 ar
    28   17   26 1
    29   22   27 ar
    30   25   27 ar
    31   18   28 1
    32   19   29 1
    33   23   30 2
    34   23   31 1
    35    1   32 1
    36    2   33 1
    37    3   34 1
    38    4   35 1
    39    5   36 1
    40    5   37 1
    41    6   38 1
    42    6   39 1
    43    7   40 1
    44    8   41 1
    45    9   42 1
    46   10   43 1
    47   11   44 1
    48   12   45 1
    49   13   46 1
    50   13   47 1
    51   14   48 1
    52   14   49 1
    53   16   50 1
    54   18   51 1
    55   19   52 1
    56   28   53 1
    57   29   54 1
    58   31   55 1
@<TRIPOS>SUBSTRUCTURE
     1 <0>         1 GROUP 0 A     ****
@<TRIPOS>MOLECULE
ISA
   22    22     1     0     0
SMALL
NO_CHARGES

@<TRIPOS>ATOM
      1 I1          2.3669    1.6869    0.0000 I         1 <0>        0.00000
      2 C1          1.6524    1.2744    0.0000 C.ar      1 <0>        0.00000
      3 C2          1.6524    0.4494    0.0000 C.ar      1 <0>        0.00000
      4 C3          0.9379    0.0369    0.0000 C.ar      1 <0>        0.00000
      5 C4          0.9379    1.6869    0.0000 C.ar      1 <0>        0.00000
      6 C5          0.2234    1.2744    0.0000 C.ar      1 <0>        0.00000
      7 C6          0.2234    0.4494    0.0000 C.ar      1 <0>        0.00000
      8 C7         -0.4910    0.0369    0.0000 C.3       1 <0>        0.00000
      9 C8         -0.4910   -0.7881    0.0000 C.3       1 <0>        0.00000
     10 S1          0.2234   -1.2006    0.0000 S.3       1 <0>        0.00000
     11 C9         -1.2055   -1.2006    0.0000 C.2       1 <0>        0.00000
     12 O1         -1.2055   -2.0256    0.0000 O.2       1 <0>        0.00000
     13 O2         -1.9200   -0.7881    0.0000 O.3       1 <0>        0.00000
     14 H1          0.0147   -0.4961    0.0000 H         1 <0>        0.00000
     15 H2          1.6524    0.4494    0.0000 H         1 <0>        0.00000
     16 H3          0.9379    0.0369    0.0000 H         1 <0>        0.00000
     17 H4          0.9379    1.6869    0.0000 H         1 <0>        0.00000
     18 H5          0.2234    1.2744    0.0000 H         1 <0>        0.00000
     19 H6         -0.4910    0.0369    0.0000 H         1 <0>        0.00000
     20 H7         -0.4910    0.0369    0.0000 H         1 <0>        0.00000
     21 H8          0.2234   -1.2006    0.0000 H         1 <0>        0.00000
     22 H9         -1.9200   -0.7881    0.0000 H         1 <0>        0.00000
@<TRIPOS>BOND
     1    1    2 1
     2    2    3 ar
     3    2    5 ar
     4    3    4 ar
     5    4    7 ar
     6    5    6 ar
     7    6    7 ar
     8    7    8 1
     9    8    9 1
    10    9   10 1
    11    9   11 1
    12    9   14 1
    13   11   12 2
    14   11   13 1
    15    3   15 1
    16    4   16 1
    17    5   17 1
    18    6   18 1
    19    8   19 1
    20    8   20 1
    21   10   21 1
    22   13   22 1
@<TRIPOS>SUBSTRUCTURE
     1 <0>         1 GROUP 0 A     ****
@<TRIPOS>MOLECULE
MiniDrugBank_11
   61    65     1     0     0
SMALL
NO_CHARGES

@<TRIPOS>ATOM
      1 C1         -3.2176    1.9800    0.0000 C.ar      1 <0>        0.00000
      2 C2         -3.2176    1.1550    0.0000 C.ar      1 <0>        0.00000
      3 C3         -3.9189    0.7425    0.0000 C.ar      1 <0>        0.00000
      4 C4         -4.6614    1.1550    0.0000 C.ar      1 <0>        0.00000
      5 C5         -4.6614    1.9800    0.0000 C.ar      1 <0>        0.00000
      6 N1         -3.9189    2.3926    0.0000 N.ar      1 <0>        0.00000
      7 C6         -2.5163    2.3926    0.0000 C.ar      1 <0>        0.00000
      8 C7         -1.7738    1.9800    0.0000 C.ar      1 <0>        0.00000
      9 C8         -1.7738    1.1550    0.0000 C.ar      1 <0>        0.00000
     10 C9         -2.5163    0.7425    0.0000 C.ar      1 <0>        0.00000
     11 O1         -1.0725    2.3926    0.0000 O.3       1 <0>        0.00000
     12 C10        -0.3712    1.9800    0.0000 C.3       1 <0>        0.00000
     13 O2         -1.0725    0.7425    0.0000 O.3       1 <0>        0.00000
     14 C11        -0.3712    1.1550    0.0000 C.3       1 <0>        0.00000
     15 O3         -3.9189   -0.0824    0.0000 O.3       1 <0>        0.00000
     16 C12        -3.1763   -0.4950    0.0000 C.ar      1 <0>        0.00000
     17 C13        -3.1763   -1.3201    0.0000 C.ar      1 <0>        0.00000
     18 C14        -2.4750   -1.7326    0.0000 C.ar      1 <0>        0.00000
     19 C15        -1.7738   -1.3201    0.0000 C.ar      1 <0>        0.00000
     20 C16        -1.7738   -0.4537    0.0000 C.ar      1 <0>        0.00000
     21 C17        -2.4750   -0.0412    0.0000 C.ar      1 <0>        0.00000
     22 N2         -1.0313   -1.6913    0.0000 N.am      1 <0>        0.00000
     23 C18        -0.3300   -1.2788    0.0000 C.2       1 <0>        0.00000
     24 C19         0.4125   -1.6913    0.0000 C.3       1 <0>        0.00000
     25 O4         -0.3300   -0.4537    0.0000 O.2       1 <0>        0.00000
     26 C20         1.1138   -1.2375    0.0000 C.2       1 <0>        0.00000
     27 N3          1.8151   -1.6500    0.0000 N.am      1 <0>        0.00000
     28 O5          1.1138   -0.4125    0.0000 O.2       1 <0>        0.00000
     29 C21         2.5163   -1.2375    0.0000 C.ar      1 <0>        0.00000
     30 C22         3.2589   -1.6500    0.0000 C.ar      1 <0>        0.00000
     31 C23         3.9189   -1.1963    0.0000 C.ar      1 <0>        0.00000
     32 C24         3.9189   -0.3713    0.0000 C.ar      1 <0>        0.00000
     33 C25         3.2176    0.0000    0.0000 C.ar      1 <0>        0.00000
     34 C26         2.5163   -0.4125    0.0000 C.ar      1 <0>        0.00000
     35 F1          4.6615    0.0000    0.0000 F         1 <0>        0.00000
     36 C27         0.0000   -2.3926    0.0000 C.3       1 <0>        0.00000
     37 C28         0.8250   -2.3926    0.0000 C.3       1 <0>        0.00000
     38 H1         -4.6614    1.1550    0.0000 H         1 <0>        0.00000
     39 H2         -4.6614    1.9800    0.0000 H         1 <0>        0.00000
     40 H3         -2.5163    2.3926    0.0000 H         1 <0>        0.00000
     41 H4         -2.5163    0.7425    0.0000 H         1 <0>        0.00000
     42 H5         -0.3712    1.9800    0.0000 H         1 <0>        0.00000
     43 H6         -0.3712    1.9800    0.0000 H         1 <0>        0.00000
     44 H7         -0.3712    1.9800    0.0000 H         1 <0>        0.00000
     45 H8         -0.3712    1.1550    0.0000 H         1 <0>        0.00000
     46 H9         -0.3712    1.1550    0.0000 H         1 <0>        0.00000
     47 H10        -0.3712    1.1550    0.0000 H         1 <0>        0.00000
     48 H11        -3.1763   -1.3201    0.0000 H         1 <0>        0.00000
     49 H12        -2.4750   -1.7326    0.0000 H         1 <0>        0.00000
     50 H13        -1.7738   -0.4537    0.0000 H         1 <0>        0.00000
     51 H14        -2.4750   -0.0412    0.0000 H         1 <0>        0.00000
     52 H15        -1.0313   -1.6913    0.0000 H         1 <0>        0.00000
     53 H16         1.8151   -1.6500    0.0000 H         1 <0>        0.00000
     54 H17         3.2589   -1.6500    0.0000 H         1 <0>        0.00000
     55 H18         3.9189   -1.1963    0.0000 H         1 <0>        0.00000
     56 H19         3.2176    0.0000    0.0000 H         1 <0>        0.00000
     57 H20         2.5163   -0.4125    0.0000 H         1 <0>        0.00000
     58 H21         0.0000   -2.3926    0.0000 H         1 <0>        0.00000
     59 H22         0.0000   -2.3926    0.0000 H         1 <0>        0.00000
     60 H23         0.8250   -2.3926    0.0000 H         1 <0>        0.00000
     61 H24         0.8250   -2.3926    0.0000 H         1 <0>        0.00000
@<TRIPOS>BOND
     1    1    2 ar
     2    2    3 ar
     3    3    4 ar
     4    4    5 ar
     5    5    6 ar
     6    1    6 ar
     7    1    7 ar
     8    7    8 ar
     9    8    9 ar
    10    9   10 ar
    11    2   10 ar
    12    8   11 1
    13   11   12 1
    14    9   13 1
    15   13   14 1
    16    3   15 1
    17   15   16 1
    18   16   17 ar
    19   17   18 ar
    20   18   19 ar
    21   19   20 ar
    22   20   21 ar
    23   16   21 ar
    24   19   22 1
    25   22   23 am
    26   23   24 1
    27   23   25 2
    28   24   26 1
    29   26   27 am
    30   26   28 2
    31   27   29 1
    32   29   30 ar
    33   30   31 ar
    34   31   32 ar
    35   32   33 ar
    36   33   34 ar
    37   29   34 ar
    38   32   35 1
    39   36   37 1
    40   24   37 1
    41   24   36 1
    42    4   38 1
    43    5   39 1
    44    7   40 1
    45   10   41 1
    46   12   42 1
    47   12   43 1
    48   12   44 1
    49   14   45 1
    50   14   46 1
    51   14   47 1
    52   17   48 1
    53   18   49 1
    54   20   50 1
    55   21   51 1
    56   22   52 1
    57   27   53 1
    58   30   54 1
    59   31   55 1
    60   33   56 1
    61   34   57 1
    62   36   58 1
    63   36   59 1
    64   37   60 1
    65   37   61 1
@<TRIPOS>SUBSTRUCTURE
     1 <0>         1 GROUP 0 A     ****
@<TRIPOS>MOLECULE
MiniDrugBank_12
   18    17     1     0     0
SMALL
NO_CHARGES

@<TRIPOS>ATOM
      1 C1          6.2861   -7.7655    0.0000 C.3       1 <0>        0.00000
      2 C2          6.9920   -7.3579    0.0000 C.3       1 <0>        0.00000
      3 C3          7.6978   -7.7655    0.0000 C.2       1 <0>        0.00000
      4 C4          8.4037   -7.3579    0.0000 C.2       1 <0>        0.00000
      5 Cl1         9.1202   -7.7717    0.0000 Cl        1 <0>        0.00000
      6 H1          8.4035   -6.5294    0.0000 H         1 <0>        0.00000
      7 C5          7.3967   -6.6390    0.0000 C.1       1 <0>        0.00000
      8 O1          6.5693   -6.6390    0.0000 O.3       1 <0>        0.00000
      9 C6          5.5724   -7.3469    0.0000 C.3       1 <0>        0.00000
     10 C7          7.8054   -5.9213    0.0000 C.1       1 <0>        0.00000
     11 H2          6.2861   -7.7655    0.0000 H         1 <0>        0.00000
     12 H3          6.2861   -7.7655    0.0000 H         1 <0>        0.00000
     13 H4          7.6978   -7.7655    0.0000 H         1 <0>        0.00000
     14 H5          6.5693   -6.6390    0.0000 H         1 <0>        0.00000
     15 H6          5.5724   -7.3469    0.0000 H         1 <0>        0.00000
     16 H7          5.5724   -7.3469    0.0000 H         1 <0>        0.00000
     17 H8          5.5724   -7.3469    0.0000 H         1 <0>        0.00000
     18 H9          7.8054   -5.9213    0.0000 H         1 <0>        0.00000
@<TRIPOS>BOND
     1    1    2 1
     2    2    3 1
     3    3    4 2
     4    4    5 1
     5    4    6 1
     6    2    7 1
     7    2    8 1
     8    1    9 1
     9    7   10 3
    10    1   11 1
    11    1   12 1
    12    3   13 1
    13    8   14 1
    14    9   15 1
    15    9   16 1
    16    9   17 1
    17   10   18 1
@<TRIPOS>SUBSTRUCTURE
     1 <0>         1 GROUP 0 A     ****
@<TRIPOS>MOLECULE
MiniDrugBank_13
  109   112     1     0     0
SMALL
NO_CHARGES

 
@<TRIPOS>ATOM
      1 C1          6.6881  -10.5220    0.0000 C.3       1 <0>        0.00000
      2 C2          7.4025  -10.1094    0.0000 C.2       1 <0>        0.00000
      3 N1          8.1171  -10.5220    0.0000 N.am      1 <0>        0.00000
      4 C3          8.8315  -10.1094    0.0000 C.3       1 <0>        0.00000
      5 C4          9.5460  -10.5220    0.0000 C.2       1 <0>        0.00000
      6 N2         10.2605  -10.1094    0.0000 N.am      1 <0>        0.00000
      7 C5         10.9750  -10.5220    0.0000 C.3       1 <0>        0.00000
      8 C6         11.6895  -10.1094    0.0000 C.2       1 <0>        0.00000
      9 N3         12.4040  -10.5220    0.0000 N.am      1 <0>        0.00000
     10 C7         13.1185  -10.1094    0.0000 C.3       1 <0>        0.00000
     11 C8         13.8330  -10.5220    0.0000 C.2       1 <0>        0.00000
     12 N4         14.5474  -10.1094    0.0000 N.am      1 <0>        0.00000
     13 C9         15.2619  -10.5220    0.0000 C.3       1 <0>        0.00000
     14 C10        15.9765  -10.1094    0.0000 C.2       1 <0>        0.00000
     15 N5          5.9736  -10.1094    0.0000 N.3       1 <0>        0.00000
     16 C11        16.6390  -10.5165    0.0000 C.3       1 <0>        0.00000
     17 C12         5.9736   -9.2846    0.0000 C.3       1 <0>        0.00000
     18 C13         5.2592   -8.8721    0.0000 C.3       1 <0>        0.00000
     19 O1          4.5446   -9.2845    0.0000 O.3       1 <0>        0.00000
     20 C14         4.5446  -10.1094    0.0000 C.3       1 <0>        0.00000
     21 C15         5.2592  -10.5220    0.0000 C.3       1 <0>        0.00000
     22 O2         15.9466   -9.2846    0.0000 O.2       1 <0>        0.00000
     23 O3         13.8330  -11.3469    0.0000 O.2       1 <0>        0.00000
     24 O4         11.6895   -9.2845    0.0000 O.2       1 <0>        0.00000
     25 O5          9.5460  -11.3469    0.0000 O.2       1 <0>        0.00000
     26 O6          7.4025   -9.2846    0.0000 O.2       1 <0>        0.00000
     27 C16        13.1185   -9.2844    0.0000 C.3       1 <0>        0.00000
     28 C17         8.8315   -9.2844    0.0000 C.3       1 <0>        0.00000
     29 C18        15.2619  -11.3470    0.0000 C.3       1 <0>        0.00000
     30 C19        10.9750  -11.3470    0.0000 C.3       1 <0>        0.00000
     31 O7         17.3549  -10.1289    0.0000 O.3       1 <0>        0.00000
     32 C20        17.3535  -10.9291    0.0000 C.3       1 <0>        0.00000
     33 C21        13.8365   -8.8699    0.0000 C.ar      1 <0>        0.00000
     34 C22         9.5472   -8.8712    0.0000 C.3       1 <0>        0.00000
     35 C23         9.5472   -8.0462    0.0000 C.ar      1 <0>        0.00000
     36 C24        10.2517   -7.6393    0.0000 C.ar      1 <0>        0.00000
     37 C25        10.2516   -6.8143    0.0000 C.ar      1 <0>        0.00000
     38 C26         9.5371   -6.4019    0.0000 C.ar      1 <0>        0.00000
     39 C27         8.8326   -6.8087    0.0000 C.ar      1 <0>        0.00000
     40 C28         8.8327   -7.6337    0.0000 C.ar      1 <0>        0.00000
     41 C29        14.5428   -9.2777    0.0000 C.ar      1 <0>        0.00000
     42 C30        15.2573   -8.8653    0.0000 C.ar      1 <0>        0.00000
     43 C31        15.2574   -8.0403    0.0000 C.ar      1 <0>        0.00000
     44 C32        14.5511   -7.6324    0.0000 C.ar      1 <0>        0.00000
     45 C33        13.8366   -8.0448    0.0000 C.ar      1 <0>        0.00000
     46 C34        11.6895  -11.7595    0.0000 C.3       1 <0>        0.00000
     47 C35        12.3964  -11.3513    0.0000 C.3       1 <0>        0.00000
     48 C36        11.6895  -12.5844    0.0000 C.3       1 <0>        0.00000
     49 C37        15.9764  -11.7595    0.0000 C.3       1 <0>        0.00000
     50 C38        16.6857  -11.3499    0.0000 C.3       1 <0>        0.00000
     51 C39        15.9765  -12.5845    0.0000 C.3       1 <0>        0.00000
     52 C40        16.6390   -9.6915    0.0000 C.3       1 <0>        0.00000
     53 H1          6.6881  -10.5220    0.0000 H         1 <0>        0.00000
     54 H2          6.6881  -10.5220    0.0000 H         1 <0>        0.00000
     55 H3          8.1171  -10.5220    0.0000 H         1 <0>        0.00000
     56 H4          8.8315  -10.1094    0.0000 H         1 <0>        0.00000
     57 H5         10.2605  -10.1094    0.0000 H         1 <0>        0.00000
     58 H6         10.9750  -10.5220    0.0000 H         1 <0>        0.00000
     59 H7         12.4040  -10.5220    0.0000 H         1 <0>        0.00000
     60 H8         13.1185  -10.1094    0.0000 H         1 <0>        0.00000
     61 H9         14.5474  -10.1094    0.0000 H         1 <0>        0.00000
     62 H10        15.2619  -10.5220    0.0000 H         1 <0>        0.00000
     63 H11         5.9736   -9.2846    0.0000 H         1 <0>        0.00000
     64 H12         5.9736   -9.2846    0.0000 H         1 <0>        0.00000
     65 H13         5.2592   -8.8721    0.0000 H         1 <0>        0.00000
     66 H14         5.2592   -8.8721    0.0000 H         1 <0>        0.00000
     67 H15         4.5446  -10.1094    0.0000 H         1 <0>        0.00000
     68 H16         4.5446  -10.1094    0.0000 H         1 <0>        0.00000
     69 H17         5.2592  -10.5220    0.0000 H         1 <0>        0.00000
     70 H18         5.2592  -10.5220    0.0000 H         1 <0>        0.00000
     71 H19        13.1185   -9.2844    0.0000 H         1 <0>        0.00000
     72 H20        13.1185   -9.2844    0.0000 H         1 <0>        0.00000
     73 H21         8.8315   -9.2844    0.0000 H         1 <0>        0.00000
     74 H22         8.8315   -9.2844    0.0000 H         1 <0>        0.00000
     75 H23        15.2619  -11.3470    0.0000 H         1 <0>        0.00000
     76 H24        15.2619  -11.3470    0.0000 H         1 <0>        0.00000
     77 H25        10.9750  -11.3470    0.0000 H         1 <0>        0.00000
     78 H26        10.9750  -11.3470    0.0000 H         1 <0>        0.00000
     79 H27        17.3535  -10.9291    0.0000 H         1 <0>        0.00000
     80 H28        17.3535  -10.9291    0.0000 H         1 <0>        0.00000
     81 H29         9.5472   -8.8712    0.0000 H         1 <0>        0.00000
     82 H30         9.5472   -8.8712    0.0000 H         1 <0>        0.00000
     83 H31        10.2517   -7.6393    0.0000 H         1 <0>        0.00000
     84 H32        10.2516   -6.8143    0.0000 H         1 <0>        0.00000
     85 H33         9.5371   -6.4019    0.0000 H         1 <0>        0.00000
     86 H34         8.8326   -6.8087    0.0000 H         1 <0>        0.00000
     87 H35         8.8327   -7.6337    0.0000 H         1 <0>        0.00000
     88 H36        14.5428   -9.2777    0.0000 H         1 <0>        0.00000
     89 H37        15.2573   -8.8653    0.0000 H         1 <0>        0.00000
     90 H38        15.2574   -8.0403    0.0000 H         1 <0>        0.00000
     91 H39        14.5511   -7.6324    0.0000 H         1 <0>        0.00000
     92 H40        13.8366   -8.0448    0.0000 H         1 <0>        0.00000
     93 H41        11.6895  -11.7595    0.0000 H         1 <0>        0.00000
     94 H42        12.3964  -11.3513    0.0000 H         1 <0>        0.00000
     95 H43        12.3964  -11.3513    0.0000 H         1 <0>        0.00000
     96 H44        12.3964  -11.3513    0.0000 H         1 <0>        0.00000
     97 H45        11.6895  -12.5844    0.0000 H         1 <0>        0.00000
     98 H46        11.6895  -12.5844    0.0000 H         1 <0>        0.00000
     99 H47        11.6895  -12.5844    0.0000 H         1 <0>        0.00000
    100 H48        15.9764  -11.7595    0.0000 H         1 <0>        0.00000
    101 H49        16.6857  -11.3499    0.0000 H         1 <0>        0.00000
    102 H50        16.6857  -11.3499    0.0000 H         1 <0>        0.00000
    103 H51        16.6857  -11.3499    0.0000 H         1 <0>        0.00000
    104 H52        15.9765  -12.5845    0.0000 H         1 <0>        0.00000
    105 H53        15.9765  -12.5845    0.0000 H         1 <0>        0.00000
    106 H54        15.9765  -12.5845    0.0000 H         1 <0>        0.00000
    107 H55        16.6390   -9.6915    0.0000 H         1 <0>        0.00000
    108 H56        16.6390   -9.6915    0.0000 H         1 <0>        0.00000
    109 H57        16.6390   -9.6915    0.0000 H         1 <0>        0.00000
@<TRIPOS>BOND
     1    1    2 1
     2    2    3 am
     3    3    4 1
     4    4    5 1
     5    5    6 am
     6    6    7 1
     7    7    8 1
     8    8    9 am
     9    9   10 1
    10   10   11 1
    11   11   12 am
    12   12   13 1
    13   13   14 1
    14    1   15 1
    15   14   16 1
    16   15   17 1
    17   17   18 1
    18   18   19 1
    19   19   20 1
    20   20   21 1
    21   15   21 1
    22   14   22 2
    23   11   23 2
    24    8   24 2
    25    5   25 2
    26    2   26 2
    27   10   27 1
    28    4   28 1
    29   13   29 1
    30    7   30 1
    31   16   31 1
    32   16   32 1
    33   31   32 1
    34   27   33 1
    35   28   34 1
    36   34   35 1
    37   35   36 ar
    38   36   37 ar
    39   37   38 ar
    40   38   39 ar
    41   39   40 ar
    42   35   40 ar
    43   33   41 ar
    44   41   42 ar
    45   42   43 ar
    46   43   44 ar
    47   44   45 ar
    48   33   45 ar
    49   30   46 1
    50   46   47 1
    51   46   48 1
    52   29   49 1
    53   49   50 1
    54   49   51 1
    55   16   52 1
    56    1   53 1
    57    1   54 1
    58    3   55 1
    59    4   56 1
    60    6   57 1
    61    7   58 1
    62    9   59 1
    63   10   60 1
    64   12   61 1
    65   13   62 1
    66   17   63 1
    67   17   64 1
    68   18   65 1
    69   18   66 1
    70   20   67 1
    71   20   68 1
    72   21   69 1
    73   21   70 1
    74   27   71 1
    75   27   72 1
    76   28   73 1
    77   28   74 1
    78   29   75 1
    79   29   76 1
    80   30   77 1
    81   30   78 1
    82   32   79 1
    83   32   80 1
    84   34   81 1
    85   34   82 1
    86   36   83 1
    87   37   84 1
    88   38   85 1
    89   39   86 1
    90   40   87 1
    91   41   88 1
    92   42   89 1
    93   43   90 1
    94   44   91 1
    95   45   92 1
    96   46   93 1
    97   47   94 1
    98   47   95 1
    99   47   96 1
   100   48   97 1
   101   48   98 1
   102   48   99 1
   103   49  100 1
   104   50  101 1
   105   50  102 1
   106   50  103 1
   107   51  104 1
   108   51  105 1
   109   51  106 1
   110   52  107 1
   111   52  108 1
   112   52  109 1
@<TRIPOS>SUBSTRUCTURE
     1 <0>         1 GROUP 0 A     ****
@<TRIPOS>MOLECULE
MiniDrugBank_14
   48    51     1     0     0
SMALL
NO_CHARGES

@<TRIPOS>ATOM
      1 I1          1.6500   -4.2426    0.0000 I         1 <0>        0.00000
      2 O1          6.3300    1.9967    0.0000 O.3       1 <0>        0.00000
      3 O2          4.2361    2.4128    0.0000 O.3       1 <0>        0.00000
      4 O3          5.2936    3.8630    0.0000 O.3       1 <0>        0.00000
      5 O4          6.9149    4.1261    0.0000 O.2       1 <0>        0.00000
      6 N1          5.2886    0.9589    0.0000 N.pl3     1 <0>        0.00000
      7 N2          5.2886   -0.3689    0.0000 N.ar      1 <0>        0.00000
      8 N3          7.7528    2.9686    0.0000 N.am      1 <0>        0.00000
      9 N4          3.7935    1.1200    0.0000 N.ar      1 <0>        0.00000
     10 N5          3.7935   -1.3551    0.0000 N.pl3     1 <0>        0.00000
     11 N6          3.0790   -0.1176    0.0000 N.ar      1 <0>        0.00000
     12 C1          5.0611    2.4114    0.0000 C.3       1 <0>        0.00000
     13 C2          5.5449    1.7431    0.0000 C.3       1 <0>        0.00000
     14 C3          5.5472    3.0780    0.0000 C.3       1 <0>        0.00000
     15 C4          6.3314    2.8217    0.0000 C.3       1 <0>        0.00000
     16 C5          6.9997    3.3055    0.0000 C.2       1 <0>        0.00000
     17 C6          4.5080    0.7074    0.0000 C.ar      1 <0>        0.00000
     18 C7          5.7701    0.2949    0.0000 C.ar      1 <0>        0.00000
     19 C8          4.5080   -0.1176    0.0000 C.ar      1 <0>        0.00000
     20 C9          3.7935   -0.5301    0.0000 C.ar      1 <0>        0.00000
     21 C10         8.4211    3.4524    0.0000 C.3       1 <0>        0.00000
     22 C11         3.0790    0.7074    0.0000 C.ar      1 <0>        0.00000
     23 C12         3.0790   -1.7676    0.0000 C.3       1 <0>        0.00000
     24 C13         3.0790   -2.5926    0.0000 C.ar      1 <0>        0.00000
     25 C14         2.3645   -3.0051    0.0000 C.ar      1 <0>        0.00000
     26 C15         3.7935   -3.0051    0.0000 C.ar      1 <0>        0.00000
     27 C16         2.3645   -3.8301    0.0000 C.ar      1 <0>        0.00000
     28 C17         3.7935   -3.8301    0.0000 C.ar      1 <0>        0.00000
     29 C18         3.0790   -4.2426    0.0000 C.ar      1 <0>        0.00000
     30 H1          4.2361    2.4128    0.0000 H         1 <0>        0.00000
     31 H2          5.2936    3.8630    0.0000 H         1 <0>        0.00000
     32 H3          7.7528    2.9686    0.0000 H         1 <0>        0.00000
     33 H4          3.7935   -1.3551    0.0000 H         1 <0>        0.00000
     34 H5          5.0611    2.4114    0.0000 H         1 <0>        0.00000
     35 H6          5.5449    1.7431    0.0000 H         1 <0>        0.00000
     36 H7          5.5472    3.0780    0.0000 H         1 <0>        0.00000
     37 H8          6.3314    2.8217    0.0000 H         1 <0>        0.00000
     38 H9          5.7701    0.2949    0.0000 H         1 <0>        0.00000
     39 H10         8.4211    3.4524    0.0000 H         1 <0>        0.00000
     40 H11         8.4211    3.4524    0.0000 H         1 <0>        0.00000
     41 H12         8.4211    3.4524    0.0000 H         1 <0>        0.00000
     42 H13         3.0790    0.7074    0.0000 H         1 <0>        0.00000
     43 H14         3.0790   -1.7676    0.0000 H         1 <0>        0.00000
     44 H15         3.0790   -1.7676    0.0000 H         1 <0>        0.00000
     45 H16         2.3645   -3.0051    0.0000 H         1 <0>        0.00000
     46 H17         3.7935   -3.0051    0.0000 H         1 <0>        0.00000
     47 H18         3.7935   -3.8301    0.0000 H         1 <0>        0.00000
     48 H19         3.0790   -4.2426    0.0000 H         1 <0>        0.00000
@<TRIPOS>BOND
     1    1   27 1
     2    2   13 1
     3    2   15 1
     4    3   12 1
     5    4   14 1
     6    5   16 2
     7    6   13 1
     8    6   17 1
     9    6   18 1
    10    7   18 2
    11    7   19 1
    12    8   16 am
    13    8   21 1
    14    9   17 ar
    15    9   22 ar
    16   10   20 1
    17   10   23 1
    18   11   20 ar
    19   11   22 ar
    20   12   13 1
    21   12   14 1
    22   14   15 1
    23   15   16 1
    24   17   19 ar
    25   19   20 ar
    26   23   24 1
    27   24   25 ar
    28   24   26 ar
    29   25   27 ar
    30   26   28 ar
    31   27   29 ar
    32   28   29 ar
    33    3   30 1
    34    4   31 1
    35    8   32 1
    36   10   33 1
    37   12   34 1
    38   13   35 1
    39   14   36 1
    40   15   37 1
    41   18   38 1
    42   21   39 1
    43   21   40 1
    44   21   41 1
    45   22   42 1
    46   23   43 1
    47   23   44 1
    48   25   45 1
    49   26   46 1
    50   28   47 1
    51   29   48 1
@<TRIPOS>SUBSTRUCTURE
     1 <0>         1 GROUP 0 A     ****
@<TRIPOS>MOLECULE
MiniDrugBank_15
   36    36     1     0     0
SMALL
NO_CHARGES

@<TRIPOS>ATOM
      1 C1         -1.3184    1.2375    0.0000 C.3       1 <0>        0.00000
      2 C2         -2.1434    1.2375    0.0000 C.2       1 <0>        0.00000
      3 O1         -2.5559    0.5230    0.0000 O.2       1 <0>        0.00000
      4 N1         -2.5559    1.9520    0.0000 N.am      1 <0>        0.00000
      5 C3         -2.1434    2.6664    0.0000 C.3       1 <0>        0.00000
      6 C4         -2.5559    3.3809    0.0000 C.3       1 <0>        0.00000
      7 C5         -3.3809    3.3809    0.0000 C.ar      1 <0>        0.00000
      8 C6         -3.7934    2.6664    0.0000 C.ar      1 <0>        0.00000
      9 C7         -4.6184    2.6664    0.0000 C.ar      1 <0>        0.00000
     10 I1         -5.0309    1.9520    0.0000 I         1 <0>        0.00000
     11 C8         -5.0309    3.3809    0.0000 C.ar      1 <0>        0.00000
     12 O2         -5.8559    3.3809    0.0000 O.3       1 <0>        0.00000
     13 C9         -4.6184    4.0954    0.0000 C.ar      1 <0>        0.00000
     14 I2         -5.0309    4.8099    0.0000 I         1 <0>        0.00000
     15 C10        -3.7934    4.0954    0.0000 C.ar      1 <0>        0.00000
     16 C11        -1.3184    2.6664    0.0000 C.2       1 <0>        0.00000
     17 O3         -0.9059    3.3809    0.0000 O.2       1 <0>        0.00000
     18 N2         -0.9059    1.9520    0.0000 N.am      1 <0>        0.00000
     19 C12        -0.0809    1.9520    0.0000 C.3       1 <0>        0.00000
     20 C13         0.3316    1.2375    0.0000 C.2       1 <0>        0.00000
     21 O4          1.1566    1.2375    0.0000 O.3       1 <0>        0.00000
     22 O5         -0.0809    0.5230    0.0000 O.2       1 <0>        0.00000
     23 H1         -1.3184    1.2375    0.0000 H         1 <0>        0.00000
     24 H2         -1.3184    1.2375    0.0000 H         1 <0>        0.00000
     25 H3         -1.3184    1.2375    0.0000 H         1 <0>        0.00000
     26 H4         -2.5559    1.9520    0.0000 H         1 <0>        0.00000
     27 H5         -2.1434    2.6664    0.0000 H         1 <0>        0.00000
     28 H6         -2.5559    3.3809    0.0000 H         1 <0>        0.00000
     29 H7         -2.5559    3.3809    0.0000 H         1 <0>        0.00000
     30 H8         -3.7934    2.6664    0.0000 H         1 <0>        0.00000
     31 H9         -5.8559    3.3809    0.0000 H         1 <0>        0.00000
     32 H10        -3.7934    4.0954    0.0000 H         1 <0>        0.00000
     33 H11        -0.9059    1.9520    0.0000 H         1 <0>        0.00000
     34 H12        -0.0809    1.9520    0.0000 H         1 <0>        0.00000
     35 H13        -0.0809    1.9520    0.0000 H         1 <0>        0.00000
     36 H14         1.1566    1.2375    0.0000 H         1 <0>        0.00000
@<TRIPOS>BOND
     1    1    2 1
     2    2    3 2
     3    2    4 am
     4    4    5 1
     5    5    6 1
     6    6    7 1
     7    7    8 ar
     8    8    9 ar
     9    9   10 1
    10    9   11 ar
    11   11   12 1
    12   11   13 ar
    13   13   14 1
    14   13   15 ar
    15    7   15 ar
    16    5   16 1
    17   16   17 2
    18   16   18 am
    19   18   19 1
    20   19   20 1
    21   20   21 1
    22   20   22 2
    23    1   23 1
    24    1   24 1
    25    1   25 1
    26    4   26 1
    27    5   27 1
    28    6   28 1
    29    6   29 1
    30    8   30 1
    31   12   31 1
    32   15   32 1
    33   18   33 1
    34   19   34 1
    35   19   35 1
    36   21   36 1
@<TRIPOS>SUBSTRUCTURE
     1 <0>         1 GROUP 0 A     ****
@<TRIPOS>MOLECULE
MiniDrugBank_16
   60    64     1     0     0
SMALL
NO_CHARGES

 
@<TRIPOS>ATOM
      1 C1         13.7618  -13.8455    0.0000 C.ar      1 <0>        0.00000
      2 C2         13.7618  -14.6820    0.0000 C.ar      1 <0>        0.00000
      3 C3         14.4729  -15.1003    0.0000 C.ar      1 <0>        0.00000
      4 N1         15.1840  -14.6820    0.0000 N.am      1 <0>        0.00000
      5 C4         15.1840  -13.8455    0.0000 C.ar      1 <0>        0.00000
      6 C5         14.4729  -13.4272    0.0000 C.ar      1 <0>        0.00000
      7 C6         14.4729  -12.5906    0.0000 C.ar      1 <0>        0.00000
      8 N2         13.7618  -12.1723    0.0000 N.am      1 <0>        0.00000
      9 C7         13.0089  -12.5906    0.0000 C.ar      1 <0>        0.00000
     10 N3         13.0089  -13.4272    0.0000 N.am      1 <0>        0.00000
     11 C8         13.7618  -11.3357    0.0000 C.3       1 <0>        0.00000
     12 O1         15.1840  -12.1723    0.0000 O.2       1 <0>        0.00000
     13 O2         12.2978  -12.1723    0.0000 O.2       1 <0>        0.00000
     14 O3         14.4729  -15.9787    0.0000 O.2       1 <0>        0.00000
     15 C9         15.9369  -15.1422    0.0000 C.3       1 <0>        0.00000
     16 N4         15.9369  -13.4272    0.0000 N.pl3     1 <0>        0.00000
     17 C10        16.6480  -13.8455    0.0000 C.ar      1 <0>        0.00000
     18 C11        16.6480  -14.6820    0.0000 C.ar      1 <0>        0.00000
     19 C12        17.4009  -15.1003    0.0000 C.ar      1 <0>        0.00000
     20 C13        18.1120  -14.6820    0.0000 C.ar      1 <0>        0.00000
     21 C14        18.1120  -13.8455    0.0000 C.ar      1 <0>        0.00000
     22 C15        17.4009  -13.4272    0.0000 C.ar      1 <0>        0.00000
     23 F1         17.4009  -12.5906    0.0000 F         1 <0>        0.00000
     24 I1         18.8231  -15.1003    0.0000 I         1 <0>        0.00000
     25 C16        13.0089  -15.1003    0.0000 C.3       1 <0>        0.00000
     26 C17        12.2978  -13.8455    0.0000 C.ar      1 <0>        0.00000
     27 C18        11.5867  -13.4272    0.0000 C.ar      1 <0>        0.00000
     28 C19        10.8756  -13.8455    0.0000 C.ar      1 <0>        0.00000
     29 C20        10.8756  -14.7239    0.0000 C.ar      1 <0>        0.00000
     30 C21        11.5867  -15.1003    0.0000 C.ar      1 <0>        0.00000
     31 C22        12.2978  -14.6820    0.0000 C.ar      1 <0>        0.00000
     32 N5         10.1227  -13.4272    0.0000 N.am      1 <0>        0.00000
     33 C23         9.4116  -13.8455    0.0000 C.2       1 <0>        0.00000
     34 C24         8.7005  -13.4272    0.0000 C.3       1 <0>        0.00000
     35 O4          9.4116  -14.6820    0.0000 O.2       1 <0>        0.00000
     36 C25        14.1801  -10.6246    0.0000 C.3       1 <0>        0.00000
     37 C26        13.3435  -10.6246    0.0000 C.3       1 <0>        0.00000
     38 H1         13.7618  -11.3357    0.0000 H         1 <0>        0.00000
     39 H2         15.9369  -15.1422    0.0000 H         1 <0>        0.00000
     40 H3         15.9369  -15.1422    0.0000 H         1 <0>        0.00000
     41 H4         15.9369  -15.1422    0.0000 H         1 <0>        0.00000
     42 H5         15.9369  -13.4272    0.0000 H         1 <0>        0.00000
     43 H6         16.6480  -14.6820    0.0000 H         1 <0>        0.00000
     44 H7         17.4009  -15.1003    0.0000 H         1 <0>        0.00000
     45 H8         18.1120  -13.8455    0.0000 H         1 <0>        0.00000
     46 H9         13.0089  -15.1003    0.0000 H         1 <0>        0.00000
     47 H10        13.0089  -15.1003    0.0000 H         1 <0>        0.00000
     48 H11        13.0089  -15.1003    0.0000 H         1 <0>        0.00000
     49 H12        11.5867  -13.4272    0.0000 H         1 <0>        0.00000
     50 H13        10.8756  -14.7239    0.0000 H         1 <0>        0.00000
     51 H14        11.5867  -15.1003    0.0000 H         1 <0>        0.00000
     52 H15        12.2978  -14.6820    0.0000 H         1 <0>        0.00000
     53 H16        10.1227  -13.4272    0.0000 H         1 <0>        0.00000
     54 H17         8.7005  -13.4272    0.0000 H         1 <0>        0.00000
     55 H18         8.7005  -13.4272    0.0000 H         1 <0>        0.00000
     56 H19         8.7005  -13.4272    0.0000 H         1 <0>        0.00000
     57 H20        14.1801  -10.6246    0.0000 H         1 <0>        0.00000
     58 H21        14.1801  -10.6246    0.0000 H         1 <0>        0.00000
     59 H22        13.3435  -10.6246    0.0000 H         1 <0>        0.00000
     60 H23        13.3435  -10.6246    0.0000 H         1 <0>        0.00000
@<TRIPOS>BOND
     1    1    2 2
     2    2    3 1
     3    3    4 am
     4    4    5 1
     5    5    6 2
     6    1    6 1
     7    6    7 1
     8    7    8 am
     9    8    9 am
    10    9   10 am
    11    1   10 1
    12    8   11 1
    13    7   12 2
    14    9   13 2
    15    3   14 2
    16    4   15 1
    17    5   16 1
    18   16   17 1
    19   17   18 ar
    20   18   19 ar
    21   19   20 ar
    22   20   21 ar
    23   21   22 ar
    24   17   22 ar
    25   22   23 1
    26   20   24 1
    27    2   25 1
    28   10   26 1
    29   26   27 ar
    30   27   28 ar
    31   28   29 ar
    32   29   30 ar
    33   30   31 ar
    34   26   31 ar
    35   28   32 1
    36   32   33 am
    37   33   34 1
    38   33   35 2
    39   36   37 1
    40   11   37 1
    41   11   36 1
    42   11   38 1
    43   15   39 1
    44   15   40 1
    45   15   41 1
    46   16   42 1
    47   18   43 1
    48   19   44 1
    49   21   45 1
    50   25   46 1
    51   25   47 1
    52   25   48 1
    53   27   49 1
    54   29   50 1
    55   30   51 1
    56   31   52 1
    57   32   53 1
    58   34   54 1
    59   34   55 1
    60   34   56 1
    61   36   57 1
    62   36   58 1
    63   37   59 1
    64   37   60 1
@<TRIPOS>SUBSTRUCTURE
     1 <0>         1 GROUP 0 A     ****
@<TRIPOS>MOLECULE
MiniDrugBank_17
   36    38     1     0     0
SMALL
NO_CHARGES

@<TRIPOS>ATOM
      1 O1          6.3709   -0.8559    0.0000 O.3       1 <0>        0.00000
      2 O2          6.2603    0.3817    0.0000 O.2       1 <0>        0.00000
      3 O3          2.1506    0.9634    0.0000 O.3       1 <0>        0.00000
      4 C1          4.8314   -1.2684    0.0000 C.3       1 <0>        0.00000
      5 C2          5.2439   -1.9829    0.0000 C.3       1 <0>        0.00000
      6 C3          4.4189   -1.9829    0.0000 C.3       1 <0>        0.00000
      7 C4          5.5459   -0.8559    0.0000 C.3       1 <0>        0.00000
      8 C5          4.1168   -0.8559    0.0000 C.2       1 <0>        0.00000
      9 C6          4.1168   -0.0309    0.0000 C.ar      1 <0>        0.00000
     10 C7          5.5459   -0.0309    0.0000 C.2       1 <0>        0.00000
     11 C8          5.9584   -1.5704    0.0000 C.3       1 <0>        0.00000
     12 C9          4.8314    0.3817    0.0000 C.ar      1 <0>        0.00000
     13 C10         3.4024   -1.2684    0.0000 C.3       1 <0>        0.00000
     14 C11         3.5088    0.5194    0.0000 C.ar      1 <0>        0.00000
     15 C12         4.6588    1.1834    0.0000 C.ar      1 <0>        0.00000
     16 C13         3.8430    1.2684    0.0000 C.ar      1 <0>        0.00000
     17 C14         2.7015    0.3493    0.0000 C.3       1 <0>        0.00000
     18 C15         3.4305    1.9829    0.0000 C.3       1 <0>        0.00000
     19 H1          6.3709   -0.8559    0.0000 H         1 <0>        0.00000
     20 H2          2.1506    0.9634    0.0000 H         1 <0>        0.00000
     21 H3          5.2439   -1.9829    0.0000 H         1 <0>        0.00000
     22 H4          5.2439   -1.9829    0.0000 H         1 <0>        0.00000
     23 H5          4.4189   -1.9829    0.0000 H         1 <0>        0.00000
     24 H6          4.4189   -1.9829    0.0000 H         1 <0>        0.00000
     25 H7          5.9584   -1.5704    0.0000 H         1 <0>        0.00000
     26 H8          5.9584   -1.5704    0.0000 H         1 <0>        0.00000
     27 H9          5.9584   -1.5704    0.0000 H         1 <0>        0.00000
     28 H10         3.4024   -1.2684    0.0000 H         1 <0>        0.00000
     29 H11         3.4024   -1.2684    0.0000 H         1 <0>        0.00000
     30 H12         3.4024   -1.2684    0.0000 H         1 <0>        0.00000
     31 H13         4.6588    1.1834    0.0000 H         1 <0>        0.00000
     32 H14         2.7015    0.3493    0.0000 H         1 <0>        0.00000
     33 H15         2.7015    0.3493    0.0000 H         1 <0>        0.00000
     34 H16         3.4305    1.9829    0.0000 H         1 <0>        0.00000
     35 H17         3.4305    1.9829    0.0000 H         1 <0>        0.00000
     36 H18         3.4305    1.9829    0.0000 H         1 <0>        0.00000
@<TRIPOS>BOND
     1    1    7 1
     2    2   10 2
     3    3   17 1
     4    4    5 1
     5    4    6 1
     6    4    7 1
     7    4    8 1
     8    5    6 1
     9    7   10 1
    10    7   11 1
    11    8    9 2
    12    8   13 1
    13    9   12 1
    14    9   14 1
    15   10   12 1
    16   12   15 2
    17   14   16 2
    18   14   17 1
    19   15   16 1
    20   16   18 1
    21    1   19 1
    22    3   20 1
    23    5   21 1
    24    5   22 1
    25    6   23 1
    26    6   24 1
    27   11   25 1
    28   11   26 1
    29   11   27 1
    30   13   28 1
    31   13   29 1
    32   13   30 1
    33   15   31 1
    34   17   32 1
    35   17   33 1
    36   18   34 1
    37   18   35 1
    38   18   36 1
@<TRIPOS>SUBSTRUCTURE
     1 <0>         1 GROUP 0 A     ****
@<TRIPOS>MOLECULE
MiniDrugBank_18
   40    41     1     0     0
SMALL
NO_CHARGES

 
@<TRIPOS>ATOM
      1 C1         12.2919  -11.1782    0.0000 C.ar      1 <0>        0.00000
      2 C2         12.2919  -12.0032    0.0000 C.ar      1 <0>        0.00000
      3 C3         12.9931  -12.4156    0.0000 C.ar      1 <0>        0.00000
      4 C4         13.7356  -12.0032    0.0000 C.ar      1 <0>        0.00000
      5 C5         13.7356  -11.1782    0.0000 C.ar      1 <0>        0.00000
      6 C6         12.9931  -10.7657    0.0000 C.ar      1 <0>        0.00000
      7 C7         14.5605  -12.0032    0.0000 C.2       1 <0>        0.00000
      8 C8         13.7356  -13.4468    0.0000 C.3       1 <0>        0.00000
      9 C9         14.5605  -13.4468    0.0000 C.3       1 <0>        0.00000
     10 C10        14.1481  -12.7044    0.0000 C.3       1 <0>        0.00000
     11 C11        14.9730  -14.1481    0.0000 C.3       1 <0>        0.00000
     12 O1         14.5605  -11.1782    0.0000 O.2       1 <0>        0.00000
     13 N1         15.3855  -12.0032    0.0000 N.am      1 <0>        0.00000
     14 C12        15.7979  -11.3019    0.0000 C.3       1 <0>        0.00000
     15 C13        15.7979  -12.7044    0.0000 C.3       1 <0>        0.00000
     16 C14        16.6229  -12.7044    0.0000 C.3       1 <0>        0.00000
     17 C15        16.6229  -11.3019    0.0000 C.3       1 <0>        0.00000
     18 N2         15.7979  -14.1481    0.0000 N.3       1 <0>        0.00000
     19 H1         12.2919  -11.1782    0.0000 H         1 <0>        0.00000
     20 H2         12.2919  -12.0032    0.0000 H         1 <0>        0.00000
     21 H3         12.9931  -12.4156    0.0000 H         1 <0>        0.00000
     22 H4         13.7356  -11.1782    0.0000 H         1 <0>        0.00000
     23 H5         12.9931  -10.7657    0.0000 H         1 <0>        0.00000
     24 H6         13.7356  -13.4468    0.0000 H         1 <0>        0.00000
     25 H7         13.7356  -13.4468    0.0000 H         1 <0>        0.00000
     26 H8         14.5605  -13.4468    0.0000 H         1 <0>        0.00000
     27 H9         14.9730  -14.1481    0.0000 H         1 <0>        0.00000
     28 H10        14.9730  -14.1481    0.0000 H         1 <0>        0.00000
     29 H11        15.7979  -11.3019    0.0000 H         1 <0>        0.00000
     30 H12        15.7979  -11.3019    0.0000 H         1 <0>        0.00000
     31 H13        15.7979  -12.7044    0.0000 H         1 <0>        0.00000
     32 H14        15.7979  -12.7044    0.0000 H         1 <0>        0.00000
     33 H15        16.6229  -12.7044    0.0000 H         1 <0>        0.00000
     34 H16        16.6229  -12.7044    0.0000 H         1 <0>        0.00000
     35 H17        16.6229  -12.7044    0.0000 H         1 <0>        0.00000
     36 H18        16.6229  -11.3019    0.0000 H         1 <0>        0.00000
     37 H19        16.6229  -11.3019    0.0000 H         1 <0>        0.00000
     38 H20        16.6229  -11.3019    0.0000 H         1 <0>        0.00000
     39 H21        15.7979  -14.1481    0.0000 H         1 <0>        0.00000
     40 H22        15.7979  -14.1481    0.0000 H         1 <0>        0.00000
@<TRIPOS>BOND
     1    8   10 1
     2    9   10 1
     3    3    4 ar
     4    9   11 1
     5    4   10 1
     6    7   10 1
     7    4    5 ar
     8    7   12 2
     9    5    6 ar
    10    7   13 am
    11    1    6 ar
    12   13   14 1
    13   13   15 1
    14   15   16 1
    15    1    2 ar
    16   14   17 1
    17    2    3 ar
    18   11   18 1
    19    8    9 1
    20    1   19 1
    21    2   20 1
    22    3   21 1
    23    5   22 1
    24    6   23 1
    25    8   24 1
    26    8   25 1
    27    9   26 1
    28   11   27 1
    29   11   28 1
    30   14   29 1
    31   14   30 1
    32   15   31 1
    33   15   32 1
    34   16   33 1
    35   16   34 1
    36   16   35 1
    37   17   36 1
    38   17   37 1
    39   17   38 1
    40   18   39 1
    41   18   40 1
@<TRIPOS>SUBSTRUCTURE
     1 <0>         1 GROUP 0 A     ****
@<TRIPOS>MOLECULE
MiniDrugBank_19
   60    64     1     0     0
SMALL
NO_CHARGES

@<TRIPOS>ATOM
      1 S1          1.3140    4.4609    0.0000 S.3       1 <0>        0.00000
      2 O1         -3.2816   -1.6947    0.0000 O.2       1 <0>        0.00000
      3 O2         -0.5195   -2.5921    0.0000 O.2       1 <0>        0.00000
      4 N1         -1.8294   -1.9247    0.0000 N.am      1 <0>        0.00000
      5 N2          1.0590    2.3414    0.0000 N.pl3     1 <0>        0.00000
      6 N3          0.8292    3.7935    0.0000 N.ar      1 <0>        0.00000
      7 N4          0.5492    0.7722    0.0000 N.3       1 <0>        0.00000
      8 C1         -2.6141   -3.0046    0.0000 C.3       1 <0>        0.00000
      9 C2         -1.8294   -3.2595    0.0000 C.3       1 <0>        0.00000
     10 C3         -2.6141   -2.1796    0.0000 C.2       1 <0>        0.00000
     11 C4         -1.3445   -2.5921    0.0000 C.2       1 <0>        0.00000
     12 C5          1.3140    3.1260    0.0000 C.ar      1 <0>        0.00000
     13 C6          2.0987    3.3810    0.0000 C.ar      1 <0>        0.00000
     14 C7          2.0987    4.2060    0.0000 C.ar      1 <0>        0.00000
     15 C8         -3.2272   -3.5566    0.0000 C.3       1 <0>        0.00000
     16 C9         -1.6579   -4.0665    0.0000 C.3       1 <0>        0.00000
     17 C10        -1.5745   -1.1400    0.0000 C.3       1 <0>        0.00000
     18 C11         2.8132    2.9685    0.0000 C.ar      1 <0>        0.00000
     19 C12         2.8132    4.6185    0.0000 C.ar      1 <0>        0.00000
     20 C13         1.6112    1.7283    0.0000 C.3       1 <0>        0.00000
     21 C14         0.2521    2.1699    0.0000 C.3       1 <0>        0.00000
     22 C15        -3.0557   -4.3636    0.0000 C.3       1 <0>        0.00000
     23 C16        -2.2711   -4.6185    0.0000 C.3       1 <0>        0.00000
     24 C17         3.5276    3.3810    0.0000 C.ar      1 <0>        0.00000
     25 C18         1.3562    0.9437    0.0000 C.3       1 <0>        0.00000
     26 C19        -0.0028    1.3853    0.0000 C.3       1 <0>        0.00000
     27 C20         3.5276    4.2060    0.0000 C.ar      1 <0>        0.00000
     28 C21        -0.7676   -0.9685    0.0000 C.3       1 <0>        0.00000
     29 C22         0.2942   -0.0124    0.0000 C.3       1 <0>        0.00000
     30 C23        -0.5126   -0.1839    0.0000 C.3       1 <0>        0.00000
     31 H1         -0.8514   -3.4674    0.0000 H         1 <0>        0.00000
     32 H2         -3.5276   -2.5978    0.0000 H         1 <0>        0.00000
     33 H3         -3.2272   -3.5566    0.0000 H         1 <0>        0.00000
     34 H4         -3.2272   -3.5566    0.0000 H         1 <0>        0.00000
     35 H5         -1.6579   -4.0665    0.0000 H         1 <0>        0.00000
     36 H6         -1.6579   -4.0665    0.0000 H         1 <0>        0.00000
     37 H7         -1.5745   -1.1400    0.0000 H         1 <0>        0.00000
     38 H8         -1.5745   -1.1400    0.0000 H         1 <0>        0.00000
     39 H9          2.8132    2.9685    0.0000 H         1 <0>        0.00000
     40 H10         2.8132    4.6185    0.0000 H         1 <0>        0.00000
     41 H11         1.6112    1.7283    0.0000 H         1 <0>        0.00000
     42 H12         1.6112    1.7283    0.0000 H         1 <0>        0.00000
     43 H13         0.2521    2.1699    0.0000 H         1 <0>        0.00000
     44 H14         0.2521    2.1699    0.0000 H         1 <0>        0.00000
     45 H15        -3.0557   -4.3636    0.0000 H         1 <0>        0.00000
     46 H16        -3.0557   -4.3636    0.0000 H         1 <0>        0.00000
     47 H17        -2.2711   -4.6185    0.0000 H         1 <0>        0.00000
     48 H18        -2.2711   -4.6185    0.0000 H         1 <0>        0.00000
     49 H19         3.5276    3.3810    0.0000 H         1 <0>        0.00000
     50 H20         1.3562    0.9437    0.0000 H         1 <0>        0.00000
     51 H21         1.3562    0.9437    0.0000 H         1 <0>        0.00000
     52 H22        -0.0028    1.3853    0.0000 H         1 <0>        0.00000
     53 H23        -0.0028    1.3853    0.0000 H         1 <0>        0.00000
     54 H24         3.5276    4.2060    0.0000 H         1 <0>        0.00000
     55 H25        -0.7676   -0.9685    0.0000 H         1 <0>        0.00000
     56 H26        -0.7676   -0.9685    0.0000 H         1 <0>        0.00000
     57 H27         0.2942   -0.0124    0.0000 H         1 <0>        0.00000
     58 H28         0.2942   -0.0124    0.0000 H         1 <0>        0.00000
     59 H29        -0.5126   -0.1839    0.0000 H         1 <0>        0.00000
     60 H30        -0.5126   -0.1839    0.0000 H         1 <0>        0.00000
@<TRIPOS>BOND
     1    1    6 1
     2    1   14 1
     3    2   10 2
     4    3   11 2
     5    4   10 am
     6    4   11 am
     7    4   17 1
     8    5   12 1
     9    5   20 1
    10    5   21 1
    11    6   12 2
    12    7   25 1
    13    7   26 1
    14    7   29 1
    15    8    9 1
    16    8   10 1
    17    8   15 1
    18    9   11 1
    19    9   16 1
    20   12   13 1
    21   13   14 ar
    22   13   18 ar
    23   14   19 ar
    24   15   22 1
    25   16   23 1
    26   17   28 1
    27   18   24 ar
    28   19   27 ar
    29   20   25 1
    30   21   26 1
    31   22   23 1
    32   24   27 ar
    33   28   30 1
    34   29   30 1
    35    9   31 1
    36    8   32 1
    37   15   33 1
    38   15   34 1
    39   16   35 1
    40   16   36 1
    41   17   37 1
    42   17   38 1
    43   18   39 1
    44   19   40 1
    45   20   41 1
    46   20   42 1
    47   21   43 1
    48   21   44 1
    49   22   45 1
    50   22   46 1
    51   23   47 1
    52   23   48 1
    53   24   49 1
    54   25   50 1
    55   25   51 1
    56   26   52 1
    57   26   53 1
    58   27   54 1
    59   28   55 1
    60   28   56 1
    61   29   57 1
    62   29   58 1
    63   30   59 1
    64   30   60 1
@<TRIPOS>SUBSTRUCTURE
     1 <0>         1 GROUP 0 A     ****
@<TRIPOS>MOLECULE
MiniDrugBank_20
   31    30     1     0     0
SMALL
NO_CHARGES

@<TRIPOS>ATOM
      1 Cl1         4.5080    2.2688    0.0000 Cl        1 <0>        0.00000
      2 S1          4.5080   -0.2063    0.0000 S.o2      1 <0>        0.00000
      3 S2          2.3645    0.2063    0.0000 S.o2      1 <0>        0.00000
      4 O1          4.9205    0.5082    0.0000 O.2       1 <0>        0.00000
      5 O2          4.0955   -0.9207    0.0000 O.2       1 <0>        0.00000
      6 O3          1.9520   -0.5082    0.0000 O.2       1 <0>        0.00000
      7 O4          2.7770    0.9207    0.0000 O.2       1 <0>        0.00000
      8 O5          3.7935   -1.4438    0.0000 O.2       1 <0>        0.00000
      9 N1          3.7935    0.2063    0.0000 N.pl3     1 <0>        0.00000
     10 N2          3.0791   -0.2063    0.0000 N.am      1 <0>        0.00000
     11 N3          2.3645   -1.4438    0.0000 N.am      1 <0>        0.00000
     12 C1          3.7935    1.0313    0.0000 C.3       1 <0>        0.00000
     13 C2          5.2224   -0.6188    0.0000 C.3       1 <0>        0.00000
     14 C3          4.5080    1.4438    0.0000 C.3       1 <0>        0.00000
     15 C4          3.0791   -1.0313    0.0000 C.2       1 <0>        0.00000
     16 C5          1.6500    0.6188    0.0000 C.3       1 <0>        0.00000
     17 C6          2.3645   -2.2688    0.0000 C.3       1 <0>        0.00000
     18 H1          2.3645   -1.4438    0.0000 H         1 <0>        0.00000
     19 H2          3.7935    1.0313    0.0000 H         1 <0>        0.00000
     20 H3          3.7935    1.0313    0.0000 H         1 <0>        0.00000
     21 H4          5.2224   -0.6188    0.0000 H         1 <0>        0.00000
     22 H5          5.2224   -0.6188    0.0000 H         1 <0>        0.00000
     23 H6          5.2224   -0.6188    0.0000 H         1 <0>        0.00000
     24 H7          4.5080    1.4438    0.0000 H         1 <0>        0.00000
     25 H8          4.5080    1.4438    0.0000 H         1 <0>        0.00000
     26 H9          1.6500    0.6188    0.0000 H         1 <0>        0.00000
     27 H10         1.6500    0.6188    0.0000 H         1 <0>        0.00000
     28 H11         1.6500    0.6188    0.0000 H         1 <0>        0.00000
     29 H12         2.3645   -2.2688    0.0000 H         1 <0>        0.00000
     30 H13         2.3645   -2.2688    0.0000 H         1 <0>        0.00000
     31 H14         2.3645   -2.2688    0.0000 H         1 <0>        0.00000
@<TRIPOS>BOND
     1    1   14 1
     2    2    4 2
     3    2    5 2
     4    2    9 1
     5    2   13 1
     6    3    6 2
     7    3    7 2
     8    3   10 1
     9    3   16 1
    10    8   15 2
    11    9   10 1
    12    9   12 1
    13   10   15 am
    14   11   15 am
    15   11   17 1
    16   12   14 1
    17   11   18 1
    18   12   19 1
    19   12   20 1
    20   13   21 1
    21   13   22 1
    22   13   23 1
    23   14   24 1
    24   14   25 1
    25   16   26 1
    26   16   27 1
    27   16   28 1
    28   17   29 1
    29   17   30 1
    30   17   31 1
@<TRIPOS>SUBSTRUCTURE
     1 <0>         1 GROUP 0 A     ****
@<TRIPOS>MOLECULE
FR0
   40    43     1     0     0
SMALL
NO_CHARGES

@<TRIPOS>ATOM
      1 N1          2.2291    0.4069    0.0000 N.ar      1 <0>        0.00000
      2 C1          3.0137    0.6619    0.0000 C.ar      1 <0>        0.00000
      3 C2          3.0137    1.4869    0.0000 C.ar      1 <0>        0.00000
      4 N2          2.2291    1.7418    0.0000 N.pl3     1 <0>        0.00000
      5 C3          1.7442    1.0744    0.0000 C.ar      1 <0>        0.00000
      6 C4          3.7282    0.2494    0.0000 C.ar      1 <0>        0.00000
      7 C5          4.4427    0.6619    0.0000 C.ar      1 <0>        0.00000
      8 C6          4.4427    1.4869    0.0000 C.ar      1 <0>        0.00000
      9 C7          3.7282    1.8994    0.0000 C.ar      1 <0>        0.00000
     10 N3          0.9192    1.0744    0.0000 N.pl3     1 <0>        0.00000
     11 C8          0.5067    0.3599    0.0000 C.3       1 <0>        0.00000
     12 C9         -0.3183    0.3599    0.0000 C.ar      1 <0>        0.00000
     13 S1         -0.8032   -0.3075    0.0000 S.3       1 <0>        0.00000
     14 C10        -1.5879   -0.0526    0.0000 C.ar      1 <0>        0.00000
     15 C11        -1.5879    0.7724    0.0000 C.ar      1 <0>        0.00000
     16 C12        -0.8032    1.0273    0.0000 C.ar      1 <0>        0.00000
     17 C13        -2.2553   -0.5375    0.0000 C.ar      1 <0>        0.00000
     18 N4         -2.2553   -1.3625    0.0000 N.ar      1 <0>        0.00000
     19 C14        -3.0399   -1.6175    0.0000 C.ar      1 <0>        0.00000
     20 S2         -3.5248   -0.9500    0.0000 S.3       1 <0>        0.00000
     21 C15        -3.0399   -0.2826    0.0000 C.ar      1 <0>        0.00000
     22 N5         -3.2949   -2.4021    0.0000 N.2       1 <0>        0.00000
     23 C16        -4.1018   -2.5736    0.0000 C.2       1 <0>        0.00000
     24 N6         -4.3568   -3.3582    0.0000 N.pl3     1 <0>        0.00000
     25 N7         -4.6539   -1.9605    0.0000 N.pl3     1 <0>        0.00000
     26 H1          2.2291    1.7418    0.0000 H         1 <0>        0.00000
     27 H2          3.7282    0.2494    0.0000 H         1 <0>        0.00000
     28 H3          4.4427    0.6619    0.0000 H         1 <0>        0.00000
     29 H4          4.4427    1.4869    0.0000 H         1 <0>        0.00000
     30 H5          3.7282    1.8994    0.0000 H         1 <0>        0.00000
     31 H6          0.9192    1.0744    0.0000 H         1 <0>        0.00000
     32 H7          0.5067    0.3599    0.0000 H         1 <0>        0.00000
     33 H8          0.5067    0.3599    0.0000 H         1 <0>        0.00000
     34 H9         -1.5879    0.7724    0.0000 H         1 <0>        0.00000
     35 H10        -0.8032    1.0273    0.0000 H         1 <0>        0.00000
     36 H11        -3.0399   -0.2826    0.0000 H         1 <0>        0.00000
     37 H12        -4.3568   -3.3582    0.0000 H         1 <0>        0.00000
     38 H13        -4.3568   -3.3582    0.0000 H         1 <0>        0.00000
     39 H14        -4.6539   -1.9605    0.0000 H         1 <0>        0.00000
     40 H15        -4.6539   -1.9605    0.0000 H         1 <0>        0.00000
@<TRIPOS>BOND
     1    1    2 1
     2    1    5 2
     3    2    3 ar
     4    2    6 ar
     5    3    4 1
     6    3    9 ar
     7    4    5 1
     8    5   10 1
     9    6    7 ar
    10    7    8 ar
    11    8    9 ar
    12   10   11 1
    13   11   12 1
    14   12   13 1
    15   12   16 2
    16   13   14 1
    17   14   15 2
    18   14   17 1
    19   15   16 1
    20   17   18 1
    21   17   21 2
    22   18   19 2
    23   19   20 1
    24   19   22 1
    25   20   21 1
    26   22   23 2
    27   23   24 1
    28   23   25 1
    29    4   26 1
    30    6   27 1
    31    7   28 1
    32    8   29 1
    33    9   30 1
    34   10   31 1
    35   11   32 1
    36   11   33 1
    37   15   34 1
    38   16   35 1
    39   21   36 1
    40   24   37 1
    41   24   38 1
    42   25   39 1
    43   25   40 1
@<TRIPOS>SUBSTRUCTURE
     1 <0>         1 GROUP 0 A     ****
@<TRIPOS>MOLECULE
MiniDrugBank_22
   39    38     1     0     0
SMALL
NO_CHARGES

@<TRIPOS>ATOM
      1 O1          4.7586    3.5724    0.0000 O.3       1 <0>        0.00000
      2 C1          5.4730    3.9849    0.0000 C.3       1 <0>        0.00000
      3 C2          6.1875    3.5724    0.0000 C.3       1 <0>        0.00000
      4 C3          6.9020    3.9849    0.0000 C.3       1 <0>        0.00000
      5 C4          7.6164    3.5724    0.0000 C.3       1 <0>        0.00000
      6 C5          8.3309    3.9849    0.0000 C.3       1 <0>        0.00000
      7 C6          9.0454    3.5724    0.0000 C.3       1 <0>        0.00000
      8 C7          9.7599    3.9849    0.0000 C.3       1 <0>        0.00000
      9 C8         10.4743    3.5724    0.0000 C.3       1 <0>        0.00000
     10 C9         11.1888    3.9849    0.0000 C.3       1 <0>        0.00000
     11 C10        11.9033    3.5724    0.0000 C.3       1 <0>        0.00000
     12 C11        12.6177    3.9849    0.0000 C.3       1 <0>        0.00000
     13 C12        13.3322    3.5724    0.0000 C.3       1 <0>        0.00000
     14 Br1        14.0467    3.9849    0.0000 Br        1 <0>        0.00000
     15 H1          4.7586    3.5724    0.0000 H         1 <0>        0.00000
     16 H2          5.4730    3.9849    0.0000 H         1 <0>        0.00000
     17 H3          5.4730    3.9849    0.0000 H         1 <0>        0.00000
     18 H4          6.1875    3.5724    0.0000 H         1 <0>        0.00000
     19 H5          6.1875    3.5724    0.0000 H         1 <0>        0.00000
     20 H6          6.9020    3.9849    0.0000 H         1 <0>        0.00000
     21 H7          6.9020    3.9849    0.0000 H         1 <0>        0.00000
     22 H8          7.6164    3.5724    0.0000 H         1 <0>        0.00000
     23 H9          7.6164    3.5724    0.0000 H         1 <0>        0.00000
     24 H10         8.3309    3.9849    0.0000 H         1 <0>        0.00000
     25 H11         8.3309    3.9849    0.0000 H         1 <0>        0.00000
     26 H12         9.0454    3.5724    0.0000 H         1 <0>        0.00000
     27 H13         9.0454    3.5724    0.0000 H         1 <0>        0.00000
     28 H14         9.7599    3.9849    0.0000 H         1 <0>        0.00000
     29 H15         9.7599    3.9849    0.0000 H         1 <0>        0.00000
     30 H16        10.4743    3.5724    0.0000 H         1 <0>        0.00000
     31 H17        10.4743    3.5724    0.0000 H         1 <0>        0.00000
     32 H18        11.1888    3.9849    0.0000 H         1 <0>        0.00000
     33 H19        11.1888    3.9849    0.0000 H         1 <0>        0.00000
     34 H20        11.9033    3.5724    0.0000 H         1 <0>        0.00000
     35 H21        11.9033    3.5724    0.0000 H         1 <0>        0.00000
     36 H22        12.6177    3.9849    0.0000 H         1 <0>        0.00000
     37 H23        12.6177    3.9849    0.0000 H         1 <0>        0.00000
     38 H24        13.3322    3.5724    0.0000 H         1 <0>        0.00000
     39 H25        13.3322    3.5724    0.0000 H         1 <0>        0.00000
@<TRIPOS>BOND
     1    1    2 1
     2    2    3 1
     3    3    4 1
     4    4    5 1
     5    5    6 1
     6    6    7 1
     7    7    8 1
     8    8    9 1
     9    9   10 1
    10   10   11 1
    11   11   12 1
    12   12   13 1
    13   13   14 1
    14    1   15 1
    15    2   16 1
    16    2   17 1
    17    3   18 1
    18    3   19 1
    19    4   20 1
    20    4   21 1
    21    5   22 1
    22    5   23 1
    23    6   24 1
    24    6   25 1
    25    7   26 1
    26    7   27 1
    27    8   28 1
    28    8   29 1
    29    9   30 1
    30    9   31 1
    31   10   32 1
    32   10   33 1
    33   11   34 1
    34   11   35 1
    35   12   36 1
    36   12   37 1
    37   13   38 1
    38   13   39 1
@<TRIPOS>SUBSTRUCTURE
     1 <0>         1 GROUP 0 A     ****
@<TRIPOS>MOLECULE
228
   12    11     1     0     0
SMALL
NO_CHARGES

@<TRIPOS>ATOM
      1 Cl1         5.2224   -0.2615    0.0000 Cl        1 <0>        0.00000
      2 F1          3.3810    0.4529    0.0000 F         1 <0>        0.00000
      3 F2          4.2060   -0.9760    0.0000 F         1 <0>        0.00000
      4 F3          4.5080    0.9760    0.0000 F         1 <0>        0.00000
      5 F4          1.6500   -0.6740    0.0000 F         1 <0>        0.00000
      6 F5          2.3645    0.5635    0.0000 F         1 <0>        0.00000
      7 O1          3.0791   -0.6740    0.0000 O.3       1 <0>        0.00000
      8 C1          3.7935   -0.2615    0.0000 C.3       1 <0>        0.00000
      9 C2          4.5080    0.1510    0.0000 C.3       1 <0>        0.00000
     10 C3          2.3645   -0.2615    0.0000 C.3       1 <0>        0.00000
     11 H1          4.5080    0.1510    0.0000 H         1 <0>        0.00000
     12 H2          2.3645   -0.2615    0.0000 H         1 <0>        0.00000
@<TRIPOS>BOND
     1    1    9 1
     2    2    8 1
     3    3    8 1
     4    4    9 1
     5    5   10 1
     6    6   10 1
     7    7    8 1
     8    7   10 1
     9    8    9 1
    10    9   11 1
    11   10   12 1
@<TRIPOS>SUBSTRUCTURE
     1 <0>         1 GROUP 0 A     ****
@<TRIPOS>MOLECULE
MiniDrugBank_24
   29    29     1     0     0
SMALL
NO_CHARGES

@<TRIPOS>ATOM
      1 C1         -2.1434   -0.4125    0.0000 C.3       1 <0>        0.00000
      2 C2         -1.4289    0.0000    0.0000 C.3       1 <0>        0.00000
      3 C3         -0.7144    1.2375    0.0000 C.3       1 <0>        0.00000
      4 C4          1.4289    0.8250    0.0000 C.ar      1 <0>        0.00000
      5 C5         -1.4289    0.8250    0.0000 C.3       1 <0>        0.00000
      6 C6          0.0000    0.8250    0.0000 C.ar      1 <0>        0.00000
      7 C7          0.7144    1.2375    0.0000 C.ar      1 <0>        0.00000
      8 C8          1.4289    0.0000    0.0000 C.ar      1 <0>        0.00000
      9 C9          0.0000    0.0000    0.0000 C.ar      1 <0>        0.00000
     10 C10         0.7144   -0.4125    0.0000 C.ar      1 <0>        0.00000
     11 C11        -2.1434    1.2375    0.0000 C.2       1 <0>        0.00000
     12 I1          0.7144    2.0625    0.0000 I         1 <0>        0.00000
     13 I2          2.1434   -0.4125    0.0000 I         1 <0>        0.00000
     14 I3         -0.7144   -0.4125    0.0000 I         1 <0>        0.00000
     15 N1          0.7144   -1.2375    0.0000 N.pl3     1 <0>        0.00000
     16 O1         -2.1434    2.0625    0.0000 O.2       1 <0>        0.00000
     17 O2         -2.8578    0.8250    0.0000 O.3       1 <0>        0.00000
     18 H1         -2.1434   -0.4125    0.0000 H         1 <0>        0.00000
     19 H2         -2.1434   -0.4125    0.0000 H         1 <0>        0.00000
     20 H3         -2.1434   -0.4125    0.0000 H         1 <0>        0.00000
     21 H4         -1.4289    0.0000    0.0000 H         1 <0>        0.00000
     22 H5         -1.4289    0.0000    0.0000 H         1 <0>        0.00000
     23 H6         -0.7144    1.2375    0.0000 H         1 <0>        0.00000
     24 H7         -0.7144    1.2375    0.0000 H         1 <0>        0.00000
     25 H8          1.4289    0.8250    0.0000 H         1 <0>        0.00000
     26 H9         -1.4289    0.8250    0.0000 H         1 <0>        0.00000
     27 H10         0.7144   -1.2375    0.0000 H         1 <0>        0.00000
     28 H11         0.7144   -1.2375    0.0000 H         1 <0>        0.00000
     29 H12        -2.8578    0.8250    0.0000 H         1 <0>        0.00000
@<TRIPOS>BOND
     1    1    2 1
     2    2    5 1
     3    3    5 1
     4    3    6 1
     5    4    7 ar
     6    6    7 ar
     7    4    8 ar
     8    6    9 ar
     9    8   10 ar
    10    9   10 ar
    11    5   11 1
    12    7   12 1
    13    8   13 1
    14    9   14 1
    15   10   15 1
    16   11   16 2
    17   11   17 1
    18    1   18 1
    19    1   19 1
    20    1   20 1
    21    2   21 1
    22    2   22 1
    23    3   23 1
    24    3   24 1
    25    4   25 1
    26    5   26 1
    27   15   27 1
    28   15   28 1
    29   17   29 1
@<TRIPOS>SUBSTRUCTURE
     1 <0>         1 GROUP 0 A     ****
@<TRIPOS>MOLECULE
MiniDrugBank_25
   53    53     1     0     0
SMALL
NO_CHARGES

@<TRIPOS>ATOM
      1 C1          2.1434   -2.8875    0.0000 C.3       1 <0>        0.00000
      2 C2          3.5723    2.0625    0.0000 C.3       1 <0>        0.00000
      3 C3          4.2868    0.8250    0.0000 C.3       1 <0>        0.00000
      4 C4         -2.1434    2.0625    0.0000 C.3       1 <0>        0.00000
      5 C5         -1.4289    3.3000    0.0000 C.3       1 <0>        0.00000
      6 C6          1.4289   -2.4750    0.0000 C.3       1 <0>        0.00000
      7 C7          3.5723    1.2375    0.0000 C.3       1 <0>        0.00000
      8 C8         -1.4289    2.4750    0.0000 C.3       1 <0>        0.00000
      9 C9          1.4289    0.8250    0.0000 C.ar      1 <0>        0.00000
     10 C10         0.0000    0.8250    0.0000 C.ar      1 <0>        0.00000
     11 C11         0.7144    1.2375    0.0000 C.ar      1 <0>        0.00000
     12 C12         1.4289    0.0000    0.0000 C.ar      1 <0>        0.00000
     13 C13         0.0000    0.0000    0.0000 C.ar      1 <0>        0.00000
     14 C14         0.7144   -0.4125    0.0000 C.ar      1 <0>        0.00000
     15 C15         1.4289   -1.6500    0.0000 C.2       1 <0>        0.00000
     16 C16         2.1434    1.2375    0.0000 C.2       1 <0>        0.00000
     17 C17        -0.7144    1.2375    0.0000 C.2       1 <0>        0.00000
     18 I1          0.7144    2.0625    0.0000 I         1 <0>        0.00000
     19 I2          2.1434   -0.4125    0.0000 I         1 <0>        0.00000
     20 I3         -0.7144   -0.4125    0.0000 I         1 <0>        0.00000
     21 N1          2.8578    0.8250    0.0000 N.2       1 <0>        0.00000
     22 N2         -0.7144    2.0625    0.0000 N.2       1 <0>        0.00000
     23 N3          0.7144   -1.2375    0.0000 N.2       1 <0>        0.00000
     24 O1          2.8578    2.4750    0.0000 O.3       1 <0>        0.00000
     25 O2          4.2868    0.0000    0.0000 O.3       1 <0>        0.00000
     26 O3         -2.1434    1.2375    0.0000 O.3       1 <0>        0.00000
     27 O4         -0.7144    3.7125    0.0000 O.3       1 <0>        0.00000
     28 O5          0.7144   -2.8875    0.0000 O.3       1 <0>        0.00000
     29 O6          2.1434   -1.2375    0.0000 O.3       1 <0>        0.00000
     30 O7          2.1434    2.0625    0.0000 O.3       1 <0>        0.00000
     31 O8         -1.4289    0.8250    0.0000 O.3       1 <0>        0.00000
     32 H1          2.1434   -2.0625    0.0000 H         1 <0>        0.00000
     33 H2          2.1434   -2.8875    0.0000 H         1 <0>        0.00000
     34 H3          2.1434   -2.8875    0.0000 H         1 <0>        0.00000
     35 H4          2.1434   -2.8875    0.0000 H         1 <0>        0.00000
     36 H5          3.5723    2.0625    0.0000 H         1 <0>        0.00000
     37 H6          3.5723    2.0625    0.0000 H         1 <0>        0.00000
     38 H7          4.2868    0.8250    0.0000 H         1 <0>        0.00000
     39 H8          4.2868    0.8250    0.0000 H         1 <0>        0.00000
     40 H9         -2.1434    2.0625    0.0000 H         1 <0>        0.00000
     41 H10        -2.1434    2.0625    0.0000 H         1 <0>        0.00000
     42 H11        -1.4289    3.3000    0.0000 H         1 <0>        0.00000
     43 H12        -1.4289    3.3000    0.0000 H         1 <0>        0.00000
     44 H13         3.5723    1.2375    0.0000 H         1 <0>        0.00000
     45 H14        -1.4289    2.4750    0.0000 H         1 <0>        0.00000
     46 H15         2.8578    2.4750    0.0000 H         1 <0>        0.00000
     47 H16         4.2868    0.0000    0.0000 H         1 <0>        0.00000
     48 H17        -2.1434    1.2375    0.0000 H         1 <0>        0.00000
     49 H18        -0.7144    3.7125    0.0000 H         1 <0>        0.00000
     50 H19         0.7144   -2.8875    0.0000 H         1 <0>        0.00000
     51 H20         2.1434   -1.2375    0.0000 H         1 <0>        0.00000
     52 H21         2.1434    2.0625    0.0000 H         1 <0>        0.00000
     53 H22        -1.4289    0.8250    0.0000 H         1 <0>        0.00000
@<TRIPOS>BOND
     1    1    6 1
     2    2    7 1
     3    3    7 1
     4    4    8 1
     5    5    8 1
     6    9   11 ar
     7   10   11 ar
     8    9   12 ar
     9   10   13 ar
    10   12   14 ar
    11   13   14 ar
    12    6   15 1
    13    9   16 1
    14   10   17 1
    15   11   18 1
    16   12   19 1
    17   13   20 1
    18    7   21 1
    19   16   21 2
    20    8   22 1
    21   17   22 2
    22   14   23 1
    23   15   23 2
    24    2   24 1
    25    3   25 1
    26    4   26 1
    27    5   27 1
    28    6   28 1
    29   15   29 1
    30   16   30 1
    31   17   31 1
    32    6   32 1
    33    1   33 1
    34    1   34 1
    35    1   35 1
    36    2   36 1
    37    2   37 1
    38    3   38 1
    39    3   39 1
    40    4   40 1
    41    4   41 1
    42    5   42 1
    43    5   43 1
    44    7   44 1
    45    8   45 1
    46   24   46 1
    47   25   47 1
    48   26   48 1
    49   27   49 1
    50   28   50 1
    51   29   51 1
    52   30   52 1
    53   31   53 1
@<TRIPOS>SUBSTRUCTURE
     1 <0>         1 GROUP 0 A     ****
@<TRIPOS>MOLECULE
MiniDrugBank_26
   32    32     1     0     0
SMALL
NO_CHARGES

@<TRIPOS>ATOM
      1 C1          2.8578    3.3000    0.0000 C.3       1 <0>        0.00000
      2 C2          0.0000   -2.4750    0.0000 C.3       1 <0>        0.00000
      3 C3          2.1434    1.2375    0.0000 C.3       1 <0>        0.00000
      4 C4          2.8578    2.4750    0.0000 C.2       1 <0>        0.00000
      5 C5          0.0000   -1.6500    0.0000 C.2       1 <0>        0.00000
      6 C6          1.4289    0.8250    0.0000 C.ar      1 <0>        0.00000
      7 C7          0.0000    0.8250    0.0000 C.ar      1 <0>        0.00000
      8 C8          0.7144    1.2375    0.0000 C.ar      1 <0>        0.00000
      9 C9          1.4289    0.0000    0.0000 C.ar      1 <0>        0.00000
     10 C10         0.0000    0.0000    0.0000 C.ar      1 <0>        0.00000
     11 C11         0.7144   -0.4125    0.0000 C.ar      1 <0>        0.00000
     12 C12        -0.7144    1.2375    0.0000 C.2       1 <0>        0.00000
     13 I1          0.7144    2.0625    0.0000 I         1 <0>        0.00000
     14 I2          2.1434   -0.4125    0.0000 I         1 <0>        0.00000
     15 I3         -0.7144   -0.4125    0.0000 I         1 <0>        0.00000
     16 N1          2.1434    2.0625    0.0000 N.2       1 <0>        0.00000
     17 N2          0.7144   -1.2375    0.0000 N.2       1 <0>        0.00000
     18 O1          3.5723    2.0625    0.0000 O.3       1 <0>        0.00000
     19 O2         -0.7144   -1.2375    0.0000 O.3       1 <0>        0.00000
     20 O3         -1.4289    0.8250    0.0000 O.2       1 <0>        0.00000
     21 O4         -0.7144    2.0625    0.0000 O.3       1 <0>        0.00000
     22 H1          2.8578    3.3000    0.0000 H         1 <0>        0.00000
     23 H2          2.8578    3.3000    0.0000 H         1 <0>        0.00000
     24 H3          2.8578    3.3000    0.0000 H         1 <0>        0.00000
     25 H4          0.0000   -2.4750    0.0000 H         1 <0>        0.00000
     26 H5          0.0000   -2.4750    0.0000 H         1 <0>        0.00000
     27 H6          0.0000   -2.4750    0.0000 H         1 <0>        0.00000
     28 H7          2.1434    1.2375    0.0000 H         1 <0>        0.00000
     29 H8          2.1434    1.2375    0.0000 H         1 <0>        0.00000
     30 H9          3.5723    2.0625    0.0000 H         1 <0>        0.00000
     31 H10        -0.7144   -1.2375    0.0000 H         1 <0>        0.00000
     32 H11        -0.7144    2.0625    0.0000 H         1 <0>        0.00000
@<TRIPOS>BOND
     1    1    4 1
     2    2    5 1
     3    3    6 1
     4    6    8 ar
     5    7    8 ar
     6    6    9 ar
     7    7   10 ar
     8    9   11 ar
     9   10   11 ar
    10    7   12 1
    11    8   13 1
    12    9   14 1
    13   10   15 1
    14    3   16 1
    15    4   16 2
    16    5   17 2
    17   11   17 1
    18    4   18 1
    19    5   19 1
    20   12   20 2
    21   12   21 1
    22    1   22 1
    23    1   23 1
    24    1   24 1
    25    2   25 1
    26    2   26 1
    27    2   27 1
    28    3   28 1
    29    3   29 1
    30   18   30 1
    31   19   31 1
    32   21   32 1
@<TRIPOS>SUBSTRUCTURE
     1 <0>         1 GROUP 0 A     ****
@<TRIPOS>MOLECULE
236
   32    32     1     0     0
SMALL
NO_CHARGES

@<TRIPOS>ATOM
      1 Br1         1.6500   -3.3000    0.0000 Br        1 <0>        0.00000
      2 Br2         4.5079    3.3000    0.0000 Br        1 <0>        0.00000
      3 O1          3.7935   -2.0625    0.0000 O.2       1 <0>        0.00000
      4 O2          2.3645    2.0625    0.0000 O.2       1 <0>        0.00000
      5 N1          3.0790   -0.8250    0.0000 N.am      1 <0>        0.00000
      6 N2          3.0790    0.8250    0.0000 N.am      1 <0>        0.00000
      7 C1          3.7935   -0.4125    0.0000 C.3       1 <0>        0.00000
      8 C2          2.3645   -0.4125    0.0000 C.3       1 <0>        0.00000
      9 C3          3.7935    0.4125    0.0000 C.3       1 <0>        0.00000
     10 C4          2.3645    0.4125    0.0000 C.3       1 <0>        0.00000
     11 C5          3.0790   -1.6500    0.0000 C.2       1 <0>        0.00000
     12 C6          3.0790    1.6500    0.0000 C.2       1 <0>        0.00000
     13 C7          2.3645   -2.0625    0.0000 C.3       1 <0>        0.00000
     14 C8          3.7935    2.0625    0.0000 C.3       1 <0>        0.00000
     15 C9          2.3645   -2.8875    0.0000 C.3       1 <0>        0.00000
     16 C10         3.7935    2.8875    0.0000 C.3       1 <0>        0.00000
     17 H1          3.7935   -0.4125    0.0000 H         1 <0>        0.00000
     18 H2          3.7935   -0.4125    0.0000 H         1 <0>        0.00000
     19 H3          2.3645   -0.4125    0.0000 H         1 <0>        0.00000
     20 H4          2.3645   -0.4125    0.0000 H         1 <0>        0.00000
     21 H5          3.7935    0.4125    0.0000 H         1 <0>        0.00000
     22 H6          3.7935    0.4125    0.0000 H         1 <0>        0.00000
     23 H7          2.3645    0.4125    0.0000 H         1 <0>        0.00000
     24 H8          2.3645    0.4125    0.0000 H         1 <0>        0.00000
     25 H9          2.3645   -2.0625    0.0000 H         1 <0>        0.00000
     26 H10         2.3645   -2.0625    0.0000 H         1 <0>        0.00000
     27 H11         3.7935    2.0625    0.0000 H         1 <0>        0.00000
     28 H12         3.7935    2.0625    0.0000 H         1 <0>        0.00000
     29 H13         2.3645   -2.8875    0.0000 H         1 <0>        0.00000
     30 H14         2.3645   -2.8875    0.0000 H         1 <0>        0.00000
     31 H15         3.7935    2.8875    0.0000 H         1 <0>        0.00000
     32 H16         3.7935    2.8875    0.0000 H         1 <0>        0.00000
@<TRIPOS>BOND
     1    1   15 1
     2    2   16 1
     3    3   11 2
     4    4   12 2
     5    5    7 1
     6    5    8 1
     7    5   11 am
     8    6    9 1
     9    6   10 1
    10    6   12 am
    11    7    9 1
    12    8   10 1
    13   11   13 1
    14   12   14 1
    15   13   15 1
    16   14   16 1
    17    7   17 1
    18    7   18 1
    19    8   19 1
    20    8   20 1
    21    9   21 1
    22    9   22 1
    23   10   23 1
    24   10   24 1
    25   13   25 1
    26   13   26 1
    27   14   27 1
    28   14   28 1
    29   15   29 1
    30   15   30 1
    31   16   31 1
    32   16   32 1
@<TRIPOS>SUBSTRUCTURE
     1 <0>         1 GROUP 0 A     ****
@<TRIPOS>MOLECULE
MiniDrugBank_28
   46    49     1     0     0
SMALL
NO_CHARGES

@<TRIPOS>ATOM
      1 C1         -2.6909    0.0165    0.0000 C.3       1 <0>        0.00000
      2 C2         -1.8659    0.0165    0.0000 C.2       1 <0>        0.00000
      3 O1         -1.4534    0.7310    0.0000 O.2       1 <0>        0.00000
      4 O2         -1.4534   -0.6979    0.0000 O.3       1 <0>        0.00000
      5 C3         -0.6284   -0.6979    0.0000 C.ar      1 <0>        0.00000
      6 C4         -0.1435   -1.3654    0.0000 C.ar      1 <0>        0.00000
      7 C5          0.6411   -1.1104    0.0000 C.ar      1 <0>        0.00000
      8 C6          0.6411   -0.2854    0.0000 C.ar      1 <0>        0.00000
      9 C7          1.3556    0.1271    0.0000 C.3       1 <0>        0.00000
     10 C8          2.0701   -0.2854    0.0000 C.3       1 <0>        0.00000
     11 N1          2.0701   -1.1104    0.0000 N.3       1 <0>        0.00000
     12 C9          1.3556   -1.5229    0.0000 C.3       1 <0>        0.00000
     13 C10         2.7845   -1.5229    0.0000 C.3       1 <0>        0.00000
     14 C11         3.4990   -1.1104    0.0000 C.2       1 <0>        0.00000
     15 O3          4.2135   -1.5229    0.0000 O.2       1 <0>        0.00000
     16 C12         3.4990   -0.2854    0.0000 C.3       1 <0>        0.00000
     17 C13         3.0865    0.4290    0.0000 C.3       1 <0>        0.00000
     18 C14         3.9115    0.4290    0.0000 C.3       1 <0>        0.00000
     19 C15         2.7845   -2.3479    0.0000 C.ar      1 <0>        0.00000
     20 C16         3.4990   -2.7604    0.0000 C.ar      1 <0>        0.00000
     21 C17         3.4990   -3.5854    0.0000 C.ar      1 <0>        0.00000
     22 C18         2.7845   -3.9979    0.0000 C.ar      1 <0>        0.00000
     23 C19         2.0701   -3.5854    0.0000 C.ar      1 <0>        0.00000
     24 C20         2.0701   -2.7604    0.0000 C.ar      1 <0>        0.00000
     25 F1          1.3556   -2.3479    0.0000 F         1 <0>        0.00000
     26 S1         -0.1435   -0.0305    0.0000 S.3       1 <0>        0.00000
     27 H1         -2.6909    0.0165    0.0000 H         1 <0>        0.00000
     28 H2         -2.6909    0.0165    0.0000 H         1 <0>        0.00000
     29 H3         -2.6909    0.0165    0.0000 H         1 <0>        0.00000
     30 H4         -0.1435   -1.3654    0.0000 H         1 <0>        0.00000
     31 H5          1.3556    0.1271    0.0000 H         1 <0>        0.00000
     32 H6          1.3556    0.1271    0.0000 H         1 <0>        0.00000
     33 H7          2.0701   -0.2854    0.0000 H         1 <0>        0.00000
     34 H8          2.0701   -0.2854    0.0000 H         1 <0>        0.00000
     35 H9          1.3556   -1.5229    0.0000 H         1 <0>        0.00000
     36 H10         1.3556   -1.5229    0.0000 H         1 <0>        0.00000
     37 H11         2.7845   -1.5229    0.0000 H         1 <0>        0.00000
     38 H12         3.4990   -0.2854    0.0000 H         1 <0>        0.00000
     39 H13         3.0865    0.4290    0.0000 H         1 <0>        0.00000
     40 H14         3.0865    0.4290    0.0000 H         1 <0>        0.00000
     41 H15         3.9115    0.4290    0.0000 H         1 <0>        0.00000
     42 H16         3.9115    0.4290    0.0000 H         1 <0>        0.00000
     43 H17         3.4990   -2.7604    0.0000 H         1 <0>        0.00000
     44 H18         3.4990   -3.5854    0.0000 H         1 <0>        0.00000
     45 H19         2.7845   -3.9979    0.0000 H         1 <0>        0.00000
     46 H20         2.0701   -3.5854    0.0000 H         1 <0>        0.00000
@<TRIPOS>BOND
     1    1    2 1
     2    2    3 2
     3    2    4 1
     4    4    5 1
     5    5    6 2
     6    6    7 1
     7    7    8 2
     8    8    9 1
     9    9   10 1
    10   10   11 1
    11   11   12 1
    12    7   12 1
    13   11   13 1
    14   13   14 1
    15   14   15 2
    16   14   16 1
    17   16   17 1
    18   17   18 1
    19   16   18 1
    20   13   19 1
    21   19   20 ar
    22   20   21 ar
    23   21   22 ar
    24   22   23 ar
    25   23   24 ar
    26   19   24 ar
    27   24   25 1
    28    8   26 1
    29    5   26 1
    30    1   27 1
    31    1   28 1
    32    1   29 1
    33    6   30 1
    34    9   31 1
    35    9   32 1
    36   10   33 1
    37   10   34 1
    38   12   35 1
    39   12   36 1
    40   13   37 1
    41   16   38 1
    42   17   39 1
    43   17   40 1
    44   18   41 1
    45   18   42 1
    46   20   43 1
    47   21   44 1
    48   22   45 1
    49   23   46 1
@<TRIPOS>SUBSTRUCTURE
     1 <0>         1 GROUP 0 A     ****
@<TRIPOS>MOLECULE
MiniDrugBank_29
    9     8     1     0     0
SMALL
NO_CHARGES

@<TRIPOS>ATOM
      1 C1          2.0625   -0.7145    0.0000 C.3       1 <0>        0.00000
      2 C2          1.2375   -0.7145    0.0000 C.3       1 <0>        0.00000
      3 N1          0.8250    0.0000    0.0000 N.2       1 <0>        0.00000
      4 O1          0.0000    0.0000    0.0000 O.2       1 <0>        0.00000
      5 H1          2.0625   -0.7145    0.0000 H         1 <0>        0.00000
      6 H2          2.0625   -0.7145    0.0000 H         1 <0>        0.00000
      7 H3          2.0625   -0.7145    0.0000 H         1 <0>        0.00000
      8 H4          1.2375   -0.7145    0.0000 H         1 <0>        0.00000
      9 H5          1.2375   -0.7145    0.0000 H         1 <0>        0.00000
@<TRIPOS>BOND
     1    1    2 1
     2    2    3 1
     3    3    4 2
     4    1    5 1
     5    1    6 1
     6    1    7 1
     7    2    8 1
     8    2    9 1
@<TRIPOS>SUBSTRUCTURE
     1 <0>         1 GROUP 0 A     ****
@<TRIPOS>MOLECULE
N5B
   30    32     1     0     0
SMALL
NO_CHARGES

@<TRIPOS>ATOM
      1 C1          1.1651   -1.2417    0.0000 C.ar      1 <0>        0.00000
      2 C2          1.1651   -2.0667    0.0000 C.3       1 <0>        0.00000
      3 C3          0.4977   -0.7568    0.0000 C.ar      1 <0>        0.00000
      4 N1          1.8326   -0.7568    0.0000 N.ar      1 <0>        0.00000
      5 C4          1.5776   -2.7812    0.0000 C.3       1 <0>        0.00000
      6 C5          0.7526   -2.7812    0.0000 C.3       1 <0>        0.00000
      7 C6          0.7526    0.0278    0.0000 C.ar      1 <0>        0.00000
      8 N2          1.5776    0.0278    0.0000 N.pl3     1 <0>        0.00000
      9 N3          0.2677    0.6953    0.0000 N.am      1 <0>        0.00000
     10 C7         -0.5528    0.6090    0.0000 C.2       1 <0>        0.00000
     11 C8         -1.0377    1.2765    0.0000 C.ar      1 <0>        0.00000
     12 O1         -0.8883   -0.1446    0.0000 O.2       1 <0>        0.00000
     13 C9         -1.8582    1.1902    0.0000 C.ar      1 <0>        0.00000
     14 C10        -0.7021    2.0302    0.0000 C.ar      1 <0>        0.00000
     15 C11        -2.3431    1.8577    0.0000 C.ar      1 <0>        0.00000
     16 C12        -1.1871    2.6976    0.0000 C.ar      1 <0>        0.00000
     17 C13        -2.0075    2.6114    0.0000 C.ar      1 <0>        0.00000
     18 H1          1.1651   -2.0667    0.0000 H         1 <0>        0.00000
     19 H2          0.4977   -0.7568    0.0000 H         1 <0>        0.00000
     20 H3          1.5776   -2.7812    0.0000 H         1 <0>        0.00000
     21 H4          1.5776   -2.7812    0.0000 H         1 <0>        0.00000
     22 H5          0.7526   -2.7812    0.0000 H         1 <0>        0.00000
     23 H6          0.7526   -2.7812    0.0000 H         1 <0>        0.00000
     24 H7          1.5776    0.0278    0.0000 H         1 <0>        0.00000
     25 H8          0.2677    0.6953    0.0000 H         1 <0>        0.00000
     26 H9         -1.8582    1.1902    0.0000 H         1 <0>        0.00000
     27 H10        -0.7021    2.0302    0.0000 H         1 <0>        0.00000
     28 H11        -2.3431    1.8577    0.0000 H         1 <0>        0.00000
     29 H12        -1.1871    2.6976    0.0000 H         1 <0>        0.00000
     30 H13        -2.0075    2.6114    0.0000 H         1 <0>        0.00000
@<TRIPOS>BOND
     1    1    2 1
     2    1    3 1
     3    1    4 2
     4    2    5 1
     5    2    6 1
     6    3    7 2
     7    4    8 1
     8    5    6 1
     9    7    8 1
    10    7    9 1
    11    9   10 am
    12   10   11 1
    13   10   12 2
    14   11   13 ar
    15   11   14 ar
    16   13   15 ar
    17   14   16 ar
    18   15   17 ar
    19   16   17 ar
    20    2   18 1
    21    3   19 1
    22    5   20 1
    23    5   21 1
    24    6   22 1
    25    6   23 1
    26    8   24 1
    27    9   25 1
    28   13   26 1
    29   14   27 1
    30   15   28 1
    31   16   29 1
    32   17   30 1
@<TRIPOS>SUBSTRUCTURE
     1 <0>         1 GROUP 0 A     ****
@<TRIPOS>MOLECULE
MiniDrugBank_31
   61    65     1     0     0
SMALL
NO_CHARGES

@<TRIPOS>ATOM
      1 C1         -2.9056   -2.0855    0.0000 C.3       1 <0>        0.00000
      2 C2         -2.7424   -1.2786    0.0000 C.3       1 <0>        0.00000
      3 O1         -2.7523   -0.4550    0.0000 O.3       1 <0>        0.00000
      4 C3         -1.9679   -0.1956    0.0000 C.3       1 <0>        0.00000
      5 C4         -1.4875    0.4798    0.0000 C.3       1 <0>        0.00000
      6 C5         -0.7049    0.2347    0.0000 C.3       1 <0>        0.00000
      7 C6          0.0066    0.6515    0.0000 C.3       1 <0>        0.00000
      8 C7         -0.0032    1.4753    0.0000 C.3       1 <0>        0.00000
      9 C8          0.7040    1.8964    0.0000 C.3       1 <0>        0.00000
     10 C9          1.4257    1.4894    0.0000 C.2       1 <0>        0.00000
     11 C10         2.1331    1.9107    0.0000 C.2       1 <0>        0.00000
     12 C11         2.8548    1.5039    0.0000 C.2       1 <0>        0.00000
     13 O2          3.5665    1.9250    0.0000 O.2       1 <0>        0.00000
     14 C12         2.8612    0.6822    0.0000 C.2       1 <0>        0.00000
     15 C13         2.1537    0.2610    0.0000 C.2       1 <0>        0.00000
     16 C14         1.4322    0.6637    0.0000 C.3       1 <0>        0.00000
     17 C15         0.7203    0.2468    0.0000 C.3       1 <0>        0.00000
     18 C16         0.7347   -0.5768    0.0000 C.3       1 <0>        0.00000
     19 C17         0.0230   -0.9938    0.0000 C.3       1 <0>        0.00000
     20 C18        -0.6986   -0.5911    0.0000 C.3       1 <0>        0.00000
     21 C19        -1.4788   -0.8545    0.0000 C.3       1 <0>        0.00000
     22 O3         -1.9554   -1.5236    0.0000 O.3       1 <0>        0.00000
     23 C20        -0.8871   -2.0326    0.0000 C.2       1 <0>        0.00000
     24 O4         -0.0638   -2.0815    0.0000 O.2       1 <0>        0.00000
     25 C21        -1.3443   -2.7224    0.0000 C.3       1 <0>        0.00000
     26 O5         -2.1674   -2.6735    0.0000 O.3       1 <0>        0.00000
     27 C22        -0.6269   -1.4151    0.0000 C.3       1 <0>        0.00000
     28 Cl1         1.2647   -1.2047    0.0000 Cl        1 <0>        0.00000
     29 Cl2         1.8773   -0.4012    0.0000 Cl        1 <0>        0.00000
     30 F1          0.6976    2.7224    0.0000 F         1 <0>        0.00000
     31 C23        -3.5665   -1.2025    0.0000 C.3       1 <0>        0.00000
     32 C24         0.6781    1.1010    0.0000 C.3       1 <0>        0.00000
     33 H1         -0.7130    1.0882    0.0000 H         1 <0>        0.00000
     34 H2         -2.5765    0.4096    0.0000 H         1 <0>        0.00000
     35 H3         -0.0002   -0.1956    0.0000 H         1 <0>        0.00000
     36 H4         -2.9056   -2.0855    0.0000 H         1 <0>        0.00000
     37 H5         -2.9056   -2.0855    0.0000 H         1 <0>        0.00000
     38 H6         -2.9056   -2.0855    0.0000 H         1 <0>        0.00000
     39 H7         -1.4875    0.4798    0.0000 H         1 <0>        0.00000
     40 H8         -1.4875    0.4798    0.0000 H         1 <0>        0.00000
     41 H9         -0.0032    1.4753    0.0000 H         1 <0>        0.00000
     42 H10        -0.0032    1.4753    0.0000 H         1 <0>        0.00000
     43 H11         0.7040    1.8964    0.0000 H         1 <0>        0.00000
     44 H12         2.1331    1.9107    0.0000 H         1 <0>        0.00000
     45 H13         2.8612    0.6822    0.0000 H         1 <0>        0.00000
     46 H14         2.1537    0.2610    0.0000 H         1 <0>        0.00000
     47 H15         0.7347   -0.5768    0.0000 H         1 <0>        0.00000
     48 H16         0.0230   -0.9938    0.0000 H         1 <0>        0.00000
     49 H17         0.0230   -0.9938    0.0000 H         1 <0>        0.00000
     50 H18        -1.3443   -2.7224    0.0000 H         1 <0>        0.00000
     51 H19        -1.3443   -2.7224    0.0000 H         1 <0>        0.00000
     52 H20        -2.1674   -2.6735    0.0000 H         1 <0>        0.00000
     53 H21        -0.6269   -1.4151    0.0000 H         1 <0>        0.00000
     54 H22        -0.6269   -1.4151    0.0000 H         1 <0>        0.00000
     55 H23        -0.6269   -1.4151    0.0000 H         1 <0>        0.00000
     56 H24        -3.5665   -1.2025    0.0000 H         1 <0>        0.00000
     57 H25        -3.5665   -1.2025    0.0000 H         1 <0>        0.00000
     58 H26        -3.5665   -1.2025    0.0000 H         1 <0>        0.00000
     59 H27         0.6781    1.1010    0.0000 H         1 <0>        0.00000
     60 H28         0.6781    1.1010    0.0000 H         1 <0>        0.00000
     61 H29         0.6781    1.1010    0.0000 H         1 <0>        0.00000
@<TRIPOS>BOND
     1    4    5 1
     2    5    6 1
     3    6    7 1
     4    7    8 1
     5    8    9 1
     6    9   10 1
     7   10   11 2
     8   11   12 1
     9   12   13 2
    10   12   14 1
    11   14   15 2
    12   15   16 1
    13   10   16 1
    14   16   17 1
    15    7   17 1
    16   17   18 1
    17   18   19 1
    18   19   20 1
    19    6   20 1
    20   20   21 1
    21    4   21 1
    22   21   22 1
    23    2   22 1
    24   21   23 1
    25   23   24 2
    26   23   25 1
    27   25   26 1
    28   20   27 1
    29   18   28 1
    30   17   29 1
    31    9   30 1
    32    2   31 1
    33   16   32 1
    34    1    2 1
    35    6   33 1
    36    2    3 1
    37    4   34 1
    38    3    4 1
    39    7   35 1
    40    1   36 1
    41    1   37 1
    42    1   38 1
    43    5   39 1
    44    5   40 1
    45    8   41 1
    46    8   42 1
    47    9   43 1
    48   11   44 1
    49   14   45 1
    50   15   46 1
    51   18   47 1
    52   19   48 1
    53   19   49 1
    54   25   50 1
    55   25   51 1
    56   26   52 1
    57   27   53 1
    58   27   54 1
    59   27   55 1
    60   31   56 1
    61   31   57 1
    62   31   58 1
    63   32   59 1
    64   32   60 1
    65   32   61 1
@<TRIPOS>SUBSTRUCTURE
     1 <0>         1 GROUP 0 A     ****
@<TRIPOS>MOLECULE
MiniDrugBank_32
   58    62     1     0     0
SMALL
NO_CHARGES

@<TRIPOS>ATOM
      1 O1         -3.9716   -2.9008    0.0000 O.3       1 <0>        0.00000
      2 C1         -4.7253   -2.5652    0.0000 C.2       1 <0>        0.00000
      3 O2         -5.3927   -3.0501    0.0000 O.2       1 <0>        0.00000
      4 C2         -4.8115   -1.7447    0.0000 C.3       1 <0>        0.00000
      5 C3         -5.5652   -1.4092    0.0000 C.3       1 <0>        0.00000
      6 C4         -6.2326   -1.8941    0.0000 C.ar      1 <0>        0.00000
      7 C5         -6.1464   -2.7146    0.0000 C.ar      1 <0>        0.00000
      8 C6         -6.8138   -3.1995    0.0000 C.ar      1 <0>        0.00000
      9 C7         -7.5675   -2.8639    0.0000 C.ar      1 <0>        0.00000
     10 C8         -7.6538   -2.0435    0.0000 C.ar      1 <0>        0.00000
     11 C9         -6.9863   -1.5585    0.0000 C.ar      1 <0>        0.00000
     12 N1         -4.1441   -1.2598    0.0000 N.am      1 <0>        0.00000
     13 C10        -3.3904   -1.5954    0.0000 C.3       1 <0>        0.00000
     14 C11        -2.7230   -1.1104    0.0000 C.ar      1 <0>        0.00000
     15 C12        -2.7230   -0.2854    0.0000 C.ar      1 <0>        0.00000
     16 C13        -1.9384   -0.0305    0.0000 C.ar      1 <0>        0.00000
     17 C14        -1.4534   -0.6979    0.0000 C.ar      1 <0>        0.00000
     18 S1         -1.9384   -1.3654    0.0000 S.3       1 <0>        0.00000
     19 C15        -0.6284   -0.6979    0.0000 C.ar      1 <0>        0.00000
     20 C16        -0.1435   -1.3654    0.0000 C.ar      1 <0>        0.00000
     21 C17         0.6411   -1.1104    0.0000 C.ar      1 <0>        0.00000
     22 C18         0.6411   -0.2854    0.0000 C.ar      1 <0>        0.00000
     23 O3         -0.1435   -0.0305    0.0000 O.3       1 <0>        0.00000
     24 C19         1.3556    0.1271    0.0000 C.ar      1 <0>        0.00000
     25 C20         2.0701   -0.2854    0.0000 C.ar      1 <0>        0.00000
     26 C21         2.0701   -1.1104    0.0000 C.ar      1 <0>        0.00000
     27 C22         1.3556   -1.5229    0.0000 C.ar      1 <0>        0.00000
     28 C23        -4.2303   -0.4393    0.0000 C.2       1 <0>        0.00000
     29 O4         -3.5629    0.0456    0.0000 O.2       1 <0>        0.00000
     30 C24        -4.9840   -0.1038    0.0000 C.ar      1 <0>        0.00000
     31 C25        -5.6514   -0.5887    0.0000 C.ar      1 <0>        0.00000
     32 C26        -6.4051   -0.2531    0.0000 C.ar      1 <0>        0.00000
     33 C27        -6.4913    0.5673    0.0000 C.ar      1 <0>        0.00000
     34 Cl1        -7.2450    0.9029    0.0000 Cl        1 <0>        0.00000
     35 C28        -5.8239    1.0523    0.0000 C.ar      1 <0>        0.00000
     36 C29        -5.0702    0.7167    0.0000 C.ar      1 <0>        0.00000
     37 Cl2        -4.4028    1.2016    0.0000 Cl        1 <0>        0.00000
     38 H1         -3.9716   -2.9008    0.0000 H         1 <0>        0.00000
     39 H2         -4.8115   -1.7447    0.0000 H         1 <0>        0.00000
     40 H3         -5.5652   -1.4092    0.0000 H         1 <0>        0.00000
     41 H4         -5.5652   -1.4092    0.0000 H         1 <0>        0.00000
     42 H5         -6.1464   -2.7146    0.0000 H         1 <0>        0.00000
     43 H6         -6.8138   -3.1995    0.0000 H         1 <0>        0.00000
     44 H7         -7.5675   -2.8639    0.0000 H         1 <0>        0.00000
     45 H8         -7.6538   -2.0435    0.0000 H         1 <0>        0.00000
     46 H9         -6.9863   -1.5585    0.0000 H         1 <0>        0.00000
     47 H10        -3.3904   -1.5954    0.0000 H         1 <0>        0.00000
     48 H11        -3.3904   -1.5954    0.0000 H         1 <0>        0.00000
     49 H12        -2.7230   -0.2854    0.0000 H         1 <0>        0.00000
     50 H13        -1.9384   -0.0305    0.0000 H         1 <0>        0.00000
     51 H14        -0.1435   -1.3654    0.0000 H         1 <0>        0.00000
     52 H15         1.3556    0.1271    0.0000 H         1 <0>        0.00000
     53 H16         2.0701   -0.2854    0.0000 H         1 <0>        0.00000
     54 H17         2.0701   -1.1104    0.0000 H         1 <0>        0.00000
     55 H18         1.3556   -1.5229    0.0000 H         1 <0>        0.00000
     56 H19        -5.6514   -0.5887    0.0000 H         1 <0>        0.00000
     57 H20        -6.4051   -0.2531    0.0000 H         1 <0>        0.00000
     58 H21        -5.8239    1.0523    0.0000 H         1 <0>        0.00000
@<TRIPOS>BOND
     1    1    2 1
     2    2    3 2
     3    2    4 1
     4    4    5 1
     5    5    6 1
     6    6    7 ar
     7    7    8 ar
     8    8    9 ar
     9    9   10 ar
    10   10   11 ar
    11    6   11 ar
    12    4   12 1
    13   12   13 1
    14   13   14 1
    15   14   15 2
    16   15   16 1
    17   16   17 2
    18   17   18 1
    19   14   18 1
    20   17   19 1
    21   19   20 2
    22   20   21 1
    23   21   22 ar
    24   22   23 1
    25   19   23 1
    26   22   24 ar
    27   24   25 ar
    28   25   26 ar
    29   26   27 ar
    30   21   27 ar
    31   12   28 am
    32   28   29 2
    33   28   30 1
    34   30   31 ar
    35   31   32 ar
    36   32   33 ar
    37   33   34 1
    38   33   35 ar
    39   35   36 ar
    40   30   36 ar
    41   36   37 1
    42    1   38 1
    43    4   39 1
    44    5   40 1
    45    5   41 1
    46    7   42 1
    47    8   43 1
    48    9   44 1
    49   10   45 1
    50   11   46 1
    51   13   47 1
    52   13   48 1
    53   15   49 1
    54   16   50 1
    55   20   51 1
    56   24   52 1
    57   25   53 1
    58   26   54 1
    59   27   55 1
    60   31   56 1
    61   32   57 1
    62   35   58 1
@<TRIPOS>SUBSTRUCTURE
     1 <0>         1 GROUP 0 A     ****
@<TRIPOS>MOLECULE
MiniDrugBank_33
   13    13     1     0     0
SMALL
NO_CHARGES

@<TRIPOS>ATOM
      1 O1          0.0000    0.0000    0.0000 O.3       1 <0>        0.00000
      2 C1          0.6674   -0.4849    0.0000 C.3       1 <0>        0.00000
      3 N1         -0.6674   -0.4849    0.0000 N.am      1 <0>        0.00000
      4 C2          0.4125   -1.2695    0.0000 C.3       1 <0>        0.00000
      5 N2          0.8974   -1.9370    0.0000 N.3       1 <0>        0.00000
      6 C3         -0.4125   -1.2695    0.0000 C.2       1 <0>        0.00000
      7 O2         -0.8974   -1.9370    0.0000 O.2       1 <0>        0.00000
      8 H1          0.6674   -0.4849    0.0000 H         1 <0>        0.00000
      9 H2          0.6674   -0.4849    0.0000 H         1 <0>        0.00000
     10 H3         -0.6674   -0.4849    0.0000 H         1 <0>        0.00000
     11 H4          0.4125   -1.2695    0.0000 H         1 <0>        0.00000
     12 H5          0.8974   -1.9370    0.0000 H         1 <0>        0.00000
     13 H6          0.8974   -1.9370    0.0000 H         1 <0>        0.00000
@<TRIPOS>BOND
     1    1    2 1
     2    1    3 1
     3    2    4 1
     4    3    6 am
     5    4    6 1
     6    4    5 1
     7    6    7 2
     8    2    8 1
     9    2    9 1
    10    3   10 1
    11    4   11 1
    12    5   12 1
    13    5   13 1
@<TRIPOS>SUBSTRUCTURE
     1 <0>         1 GROUP 0 A     ****
@<TRIPOS>MOLECULE
878
   22    22     1     0     0
SMALL
NO_CHARGES

@<TRIPOS>ATOM
      1 C1          0.6456    1.4223    0.0000 C.ar      1 <0>        0.00000
      2 C2          0.6456    0.5973    0.0000 C.ar      1 <0>        0.00000
      3 C3         -0.0689    0.1848    0.0000 C.ar      1 <0>        0.00000
      4 C4         -0.7834    0.5973    0.0000 C.ar      1 <0>        0.00000
      5 C5         -0.7834    1.4223    0.0000 C.ar      1 <0>        0.00000
      6 C6         -0.0689    1.8348    0.0000 C.ar      1 <0>        0.00000
      7 C7         -1.4979    0.1848    0.0000 C.2       1 <0>        0.00000
      8 O1         -2.2123    0.5973    0.0000 O.2       1 <0>        0.00000
      9 O2         -1.4979   -0.6402    0.0000 O.3       1 <0>        0.00000
     10 N1         -0.0689   -0.6402    0.0000 N.am      1 <0>        0.00000
     11 C8          0.6456   -1.0527    0.0000 C.2       1 <0>        0.00000
     12 O3          1.3600   -0.6402    0.0000 O.2       1 <0>        0.00000
     13 C9          0.6456   -1.8777    0.0000 C.2       1 <0>        0.00000
     14 O4         -0.0689   -2.2902    0.0000 O.2       1 <0>        0.00000
     15 O5          1.3600   -2.2902    0.0000 O.3       1 <0>        0.00000
     16 I1         -0.0689    2.6598    0.0000 I         1 <0>        0.00000
     17 H1          0.6456    1.4223    0.0000 H         1 <0>        0.00000
     18 H2          0.6456    0.5973    0.0000 H         1 <0>        0.00000
     19 H3         -0.7834    1.4223    0.0000 H         1 <0>        0.00000
     20 H4         -1.4979   -0.6402    0.0000 H         1 <0>        0.00000
     21 H5         -0.0689   -0.6402    0.0000 H         1 <0>        0.00000
     22 H6          1.3600   -2.2902    0.0000 H         1 <0>        0.00000
@<TRIPOS>BOND
     1    1    2 ar
     2    1    6 ar
     3    2    3 ar
     4    3    4 ar
     5    3   10 1
     6    4    5 ar
     7    4    7 1
     8    5    6 ar
     9    6   16 1
    10    7    8 2
    11    7    9 1
    12   10   11 am
    13   11   12 2
    14   11   13 1
    15   13   14 2
    16   13   15 1
    17    1   17 1
    18    2   18 1
    19    5   19 1
    20    9   20 1
    21   10   21 1
    22   15   22 1
@<TRIPOS>SUBSTRUCTURE
     1 <0>         1 GROUP 0 A     ****
@<TRIPOS>MOLECULE
2140
   29    29     1     0     0
SMALL
NO_CHARGES

@<TRIPOS>ATOM
      1 I1          2.3645    0.4125    0.0000 I         1 <0>        0.00000
      2 I2          5.2224    0.4125    0.0000 I         1 <0>        0.00000
      3 I3          3.7935   -2.0625    0.0000 I         1 <0>        0.00000
      4 O1          5.2224   -2.0625    0.0000 O.3       1 <0>        0.00000
      5 O2          5.9370   -0.8250    0.0000 O.2       1 <0>        0.00000
      6 O3          3.0790   -2.4751    0.0000 O.2       1 <0>        0.00000
      7 O4          5.2224    1.2375    0.0000 O.2       1 <0>        0.00000
      8 N1          2.3645   -1.2375    0.0000 N.am      1 <0>        0.00000
      9 N2          3.7935    1.2375    0.0000 N.am      1 <0>        0.00000
     10 C1          3.0790   -0.8250    0.0000 C.ar      1 <0>        0.00000
     11 C2          3.7935    0.4125    0.0000 C.ar      1 <0>        0.00000
     12 C3          3.0790    0.0000    0.0000 C.ar      1 <0>        0.00000
     13 C4          4.5080   -0.8250    0.0000 C.ar      1 <0>        0.00000
     14 C5          4.5080    0.0000    0.0000 C.ar      1 <0>        0.00000
     15 C6          3.7935   -1.2375    0.0000 C.ar      1 <0>        0.00000
     16 C7          5.2224   -1.2375    0.0000 C.2       1 <0>        0.00000
     17 C8          2.3645   -2.0625    0.0000 C.2       1 <0>        0.00000
     18 C9          4.5080    1.6500    0.0000 C.2       1 <0>        0.00000
     19 C10         1.6500   -2.4751    0.0000 C.3       1 <0>        0.00000
     20 C11         4.5080    2.4751    0.0000 C.3       1 <0>        0.00000
     21 H1          5.2224   -2.0625    0.0000 H         1 <0>        0.00000
     22 H2          2.3645   -1.2375    0.0000 H         1 <0>        0.00000
     23 H3          3.7935    1.2375    0.0000 H         1 <0>        0.00000
     24 H4          1.6500   -2.4751    0.0000 H         1 <0>        0.00000
     25 H5          1.6500   -2.4751    0.0000 H         1 <0>        0.00000
     26 H6          1.6500   -2.4751    0.0000 H         1 <0>        0.00000
     27 H7          4.5080    2.4751    0.0000 H         1 <0>        0.00000
     28 H8          4.5080    2.4751    0.0000 H         1 <0>        0.00000
     29 H9          4.5080    2.4751    0.0000 H         1 <0>        0.00000
@<TRIPOS>BOND
     1    1   12 1
     2    2   14 1
     3    3   15 1
     4    4   16 1
     5    5   16 2
     6    6   17 2
     7    7   18 2
     8    8   10 1
     9    8   17 am
    10    9   11 1
    11    9   18 am
    12   10   12 ar
    13   10   15 ar
    14   11   12 ar
    15   11   14 ar
    16   13   14 ar
    17   13   15 ar
    18   13   16 1
    19   17   19 1
    20   18   20 1
    21    4   21 1
    22    8   22 1
    23    9   23 1
    24   19   24 1
    25   19   25 1
    26   19   26 1
    27   20   27 1
    28   20   28 1
    29   20   29 1
@<TRIPOS>SUBSTRUCTURE
     1 <0>         1 GROUP 0 A     ****
@<TRIPOS>MOLECULE
MiniDrugBank_36
   18    19     1     0     0
SMALL
NO_CHARGES

@<TRIPOS>ATOM
      1 C1          6.8474   -9.9413    0.0000 C.ar      1 <0>        0.00000
      2 C2          7.6724   -9.9413    0.0000 C.ar      1 <0>        0.00000
      3 N1          7.9274   -9.1566    0.0000 N.am      1 <0>        0.00000
      4 O1          7.2600   -8.6717    0.0000 O.3       1 <0>        0.00000
      5 C3          6.5926   -9.1566    0.0000 C.ar      1 <0>        0.00000
      6 O2          8.0850  -10.6557    0.0000 O.2       1 <0>        0.00000
      7 C4          5.7856   -8.9851    0.0000 C.3       1 <0>        0.00000
      8 N2          5.2336   -9.5982    0.0000 N.3       1 <0>        0.00000
      9 C5          5.4885  -10.3828    0.0000 C.3       1 <0>        0.00000
     10 C6          6.2955  -10.5544    0.0000 C.3       1 <0>        0.00000
     11 H1          7.9274   -9.1566    0.0000 H         1 <0>        0.00000
     12 H2          5.7856   -8.9851    0.0000 H         1 <0>        0.00000
     13 H3          5.7856   -8.9851    0.0000 H         1 <0>        0.00000
     14 H4          5.2336   -9.5982    0.0000 H         1 <0>        0.00000
     15 H5          5.4885  -10.3828    0.0000 H         1 <0>        0.00000
     16 H6          5.4885  -10.3828    0.0000 H         1 <0>        0.00000
     17 H7          6.2955  -10.5544    0.0000 H         1 <0>        0.00000
     18 H8          6.2955  -10.5544    0.0000 H         1 <0>        0.00000
@<TRIPOS>BOND
     1    1    2 1
     2    2    3 am
     3    3    4 1
     4    4    5 1
     5    1    5 2
     6    2    6 2
     7    5    7 1
     8    7    8 1
     9    8    9 1
    10    9   10 1
    11    1   10 1
    12    3   11 1
    13    7   12 1
    14    7   13 1
    15    8   14 1
    16    9   15 1
    17    9   16 1
    18   10   17 1
    19   10   18 1
@<TRIPOS>SUBSTRUCTURE
     1 <0>         1 GROUP 0 A     ****
@<TRIPOS>MOLECULE
501
   33    33     1     0     0
SMALL
NO_CHARGES

@<TRIPOS>ATOM
      1 S1          2.8795   -0.9075    0.0000 S.3       1 <0>        0.00000
      2 N1          2.3176   -3.5983    0.0000 N.pl3     1 <0>        0.00000
      3 N2          3.5138    1.1812    0.0000 N.pl3     1 <0>        0.00000
      4 N3          1.9050   -2.3287    0.0000 N.ar      1 <0>        0.00000
      5 N4          3.6631    2.6024    0.0000 N.pl3     1 <0>        0.00000
      6 N5          2.3577    2.0211    0.0000 N.2       1 <0>        0.00000
      7 N6          2.9920    4.1098    0.0000 N.1       1 <0>        0.00000
      8 C1          2.7301   -2.3287    0.0000 C.ar      1 <0>        0.00000
      9 C2          3.2150   -1.6612    0.0000 C.3       1 <0>        0.00000
     10 C3          3.3645   -0.2400    0.0000 C.3       1 <0>        0.00000
     11 C4          3.0288    0.5137    0.0000 C.3       1 <0>        0.00000
     12 C5          2.9850   -3.1133    0.0000 C.ar      1 <0>        0.00000
     13 C6          3.7697   -3.3683    0.0000 C.3       1 <0>        0.00000
     14 C7          1.6501   -3.1133    0.0000 C.ar      1 <0>        0.00000
     15 C8          3.1782    1.9349    0.0000 C.2       1 <0>        0.00000
     16 C9          2.0221    2.7749    0.0000 C.3       1 <0>        0.00000
     17 C10         3.3276    3.3561    0.0000 C.1       1 <0>        0.00000
     18 H1          2.3176   -3.5983    0.0000 H         1 <0>        0.00000
     19 H2          3.5138    1.1812    0.0000 H         1 <0>        0.00000
     20 H3          3.6631    2.6024    0.0000 H         1 <0>        0.00000
     21 H4          3.2150   -1.6612    0.0000 H         1 <0>        0.00000
     22 H5          3.2150   -1.6612    0.0000 H         1 <0>        0.00000
     23 H6          3.3645   -0.2400    0.0000 H         1 <0>        0.00000
     24 H7          3.3645   -0.2400    0.0000 H         1 <0>        0.00000
     25 H8          3.0288    0.5137    0.0000 H         1 <0>        0.00000
     26 H9          3.0288    0.5137    0.0000 H         1 <0>        0.00000
     27 H10         3.7697   -3.3683    0.0000 H         1 <0>        0.00000
     28 H11         3.7697   -3.3683    0.0000 H         1 <0>        0.00000
     29 H12         3.7697   -3.3683    0.0000 H         1 <0>        0.00000
     30 H13         1.6501   -3.1133    0.0000 H         1 <0>        0.00000
     31 H14         2.0221    2.7749    0.0000 H         1 <0>        0.00000
     32 H15         2.0221    2.7749    0.0000 H         1 <0>        0.00000
     33 H16         2.0221    2.7749    0.0000 H         1 <0>        0.00000
@<TRIPOS>BOND
     1    1    9 1
     2    1   10 1
     3    2   12 1
     4    2   14 1
     5    3   11 1
     6    3   15 1
     7    4    8 1
     8    4   14 2
     9    5   15 1
    10    5   17 1
    11    6   15 2
    12    6   16 1
    13    7   17 3
    14    8    9 1
    15    8   12 2
    16   10   11 1
    17   12   13 1
    18    2   18 1
    19    3   19 1
    20    5   20 1
    21    9   21 1
    22    9   22 1
    23   10   23 1
    24   10   24 1
    25   11   25 1
    26   11   26 1
    27   13   27 1
    28   13   28 1
    29   13   29 1
    30   14   30 1
    31   16   31 1
    32   16   32 1
    33   16   33 1
@<TRIPOS>SUBSTRUCTURE
     1 <0>         1 GROUP 0 A     ****
@<TRIPOS>MOLECULE
MiniDrugBank_38
   52    55     1     0     0
SMALL
NO_CHARGES

@<TRIPOS>ATOM
      1 C1          1.8036   -0.1138    0.0000 C.3       1 <0>        0.00000
      2 C2          0.3045   -1.0964    0.0000 C.3       1 <0>        0.00000
      3 C3          1.8036    1.2211    0.0000 C.3       1 <0>        0.00000
      4 C4          0.3045    1.3786    0.0000 C.3       1 <0>        0.00000
      5 C5          2.2885    0.5536    0.0000 C.3       1 <0>        0.00000
      6 C6         -1.1245   -0.2714    0.0000 C.3       1 <0>        0.00000
      7 C7         -0.4100    0.9661    0.0000 C.2       1 <0>        0.00000
      8 C8         -0.4100   -1.5089    0.0000 C.3       1 <0>        0.00000
      9 C9         -1.1245   -1.0964    0.0000 C.2       1 <0>        0.00000
     10 C10        -1.8390    0.1411    0.0000 C.3       1 <0>        0.00000
     11 C11        -1.8390   -1.5089    0.0000 C.2       1 <0>        0.00000
     12 C12        -2.5534   -0.2714    0.0000 C.3       1 <0>        0.00000
     13 C13         0.3045   -0.2714    0.0000 C.3       1 <0>        0.00000
     14 H1          0.3045    0.5536    0.0000 H         1 <0>        0.00000
     15 C14        -0.4100    0.1411    0.0000 C.3       1 <0>        0.00000
     16 H2         -0.4100   -0.6839    0.0000 H         1 <0>        0.00000
     17 C15         1.0189    0.9661    0.0000 C.3       1 <0>        0.00000
     18 C16         1.0189    1.7911    0.0000 C.3       1 <0>        0.00000
     19 C17         1.0189    0.1411    0.0000 C.3       1 <0>        0.00000
     20 H3          1.0189   -0.6839    0.0000 H         1 <0>        0.00000
     21 O1         -3.2679   -1.5089    0.0000 O.2       1 <0>        0.00000
     22 C18        -2.5534   -1.0964    0.0000 C.2       1 <0>        0.00000
     23 H4         -1.1245    0.5536    0.0000 H         1 <0>        0.00000
     24 C19         2.5181    1.6336    0.0000 C.1       1 <0>        0.00000
     25 O2          1.8036    2.0461    0.0000 O.3       1 <0>        0.00000
     26 C20         0.3044    2.2036    0.0000 C.3       1 <0>        0.00000
     27 C21         3.2325    2.0461    0.0000 C.1       1 <0>        0.00000
     28 C22        -1.1245    1.3786    0.0000 C.2       1 <0>        0.00000
     29 H5          1.8036   -0.1138    0.0000 H         1 <0>        0.00000
     30 H6          1.8036   -0.1138    0.0000 H         1 <0>        0.00000
     31 H7          0.3045   -1.0964    0.0000 H         1 <0>        0.00000
     32 H8          0.3045   -1.0964    0.0000 H         1 <0>        0.00000
     33 H9          0.3045    1.3786    0.0000 H         1 <0>        0.00000
     34 H10         0.3045    1.3786    0.0000 H         1 <0>        0.00000
     35 H11         2.2885    0.5536    0.0000 H         1 <0>        0.00000
     36 H12         2.2885    0.5536    0.0000 H         1 <0>        0.00000
     37 H13        -0.4100   -1.5089    0.0000 H         1 <0>        0.00000
     38 H14        -0.4100   -1.5089    0.0000 H         1 <0>        0.00000
     39 H15        -1.8390    0.1411    0.0000 H         1 <0>        0.00000
     40 H16        -1.8390    0.1411    0.0000 H         1 <0>        0.00000
     41 H17        -1.8390   -1.5089    0.0000 H         1 <0>        0.00000
     42 H18        -2.5534   -0.2714    0.0000 H         1 <0>        0.00000
     43 H19        -2.5534   -0.2714    0.0000 H         1 <0>        0.00000
     44 H20         1.0189    1.7911    0.0000 H         1 <0>        0.00000
     45 H21         1.0189    1.7911    0.0000 H         1 <0>        0.00000
     46 H22         1.8036    2.0461    0.0000 H         1 <0>        0.00000
     47 H23         0.3044    2.2036    0.0000 H         1 <0>        0.00000
     48 H24         0.3044    2.2036    0.0000 H         1 <0>        0.00000
     49 H25         0.3044    2.2036    0.0000 H         1 <0>        0.00000
     50 H26         3.2325    2.0461    0.0000 H         1 <0>        0.00000
     51 H27        -1.1245    1.3786    0.0000 H         1 <0>        0.00000
     52 H28        -1.1245    1.3786    0.0000 H         1 <0>        0.00000
@<TRIPOS>BOND
     1   13   19 1
     2   17   19 1
     3    1   19 1
     4   13   15 1
     5    2   13 1
     6    3   17 1
     7    4   17 1
     8    1    5 1
     9    6   15 1
    10    7   15 1
    11    2    8 1
    12    6    9 1
    13    6   10 1
    14    9   11 2
    15   10   12 1
    16   11   22 1
    17    3    5 1
    18    4    7 1
    19    8    9 1
    20   12   22 1
    21   13   14 1
    22   15   16 1
    23   17   18 1
    24   19   20 1
    25   21   22 2
    26    6   23 1
    27    3   24 1
    28    3   25 1
    29   18   26 1
    30   24   27 3
    31    7   28 2
    32    1   29 1
    33    1   30 1
    34    2   31 1
    35    2   32 1
    36    4   33 1
    37    4   34 1
    38    5   35 1
    39    5   36 1
    40    8   37 1
    41    8   38 1
    42   10   39 1
    43   10   40 1
    44   11   41 1
    45   12   42 1
    46   12   43 1
    47   18   44 1
    48   18   45 1
    49   25   46 1
    50   26   47 1
    51   26   48 1
    52   26   49 1
    53   27   50 1
    54   28   51 1
    55   28   52 1
@<TRIPOS>SUBSTRUCTURE
     1 <0>         1 GROUP 0 A     ****
@<TRIPOS>MOLECULE
MiniDrugBank_39
   48    50     1     0     0
SMALL
NO_CHARGES

@<TRIPOS>ATOM
      1 O1         -2.8579   -0.8250    0.0000 O.3       1 <0>        0.00000
      2 C1         -2.1434   -1.2375    0.0000 C.2       1 <0>        0.00000
      3 O2         -1.4289   -0.8250    0.0000 O.2       1 <0>        0.00000
      4 C2         -2.1434   -2.0625    0.0000 C.2       1 <0>        0.00000
      5 N1         -1.4289   -2.4750    0.0000 N.2       1 <0>        0.00000
      6 C3         -0.7145   -2.0625    0.0000 C.2       1 <0>        0.00000
      7 O3         -0.7145   -1.2375    0.0000 O.2       1 <0>        0.00000
      8 C4          0.0000   -2.4750    0.0000 C.3       1 <0>        0.00000
      9 C5          0.0000   -3.3000    0.0000 C.3       1 <0>        0.00000
     10 S1         -0.7145   -3.7125    0.0000 S.3       1 <0>        0.00000
     11 C6          0.7145   -2.0625    0.0000 C.3       1 <0>        0.00000
     12 C7          1.4289   -2.4750    0.0000 C.3       1 <0>        0.00000
     13 C8          2.1434   -2.0625    0.0000 C.ar      1 <0>        0.00000
     14 C9          2.1434   -1.2375    0.0000 C.ar      1 <0>        0.00000
     15 C10         2.8579   -0.8250    0.0000 C.ar      1 <0>        0.00000
     16 C11         3.5724   -1.2375    0.0000 C.ar      1 <0>        0.00000
     17 C12         3.5724   -2.0625    0.0000 C.ar      1 <0>        0.00000
     18 C13         2.8579   -2.4750    0.0000 C.ar      1 <0>        0.00000
     19 C14        -2.8579   -2.4750    0.0000 C.ar      1 <0>        0.00000
     20 C15        -2.9441   -3.2955    0.0000 C.ar      1 <0>        0.00000
     21 C16        -3.7511   -3.4670    0.0000 C.ar      1 <0>        0.00000
     22 C17        -4.1636   -2.7525    0.0000 C.ar      1 <0>        0.00000
     23 C18        -4.9841   -2.6663    0.0000 C.3       1 <0>        0.00000
     24 N2         -5.3196   -1.9126    0.0000 N.pl3     1 <0>        0.00000
     25 C19        -6.1266   -1.7411    0.0000 C.ar      1 <0>        0.00000
     26 N3         -6.2128   -0.9206    0.0000 N.ar      1 <0>        0.00000
     27 N4         -5.4592   -0.5851    0.0000 N.ar      1 <0>        0.00000
     28 N5         -4.9071   -1.1982    0.0000 N.ar      1 <0>        0.00000
     29 S2         -3.6116   -2.1394    0.0000 S.3       1 <0>        0.00000
     30 H1         -2.8579   -0.8250    0.0000 H         1 <0>        0.00000
     31 H2          0.0000   -2.4750    0.0000 H         1 <0>        0.00000
     32 H3          0.0000   -3.3000    0.0000 H         1 <0>        0.00000
     33 H4          0.0000   -3.3000    0.0000 H         1 <0>        0.00000
     34 H5         -0.7145   -3.7125    0.0000 H         1 <0>        0.00000
     35 H6          0.7145   -2.0625    0.0000 H         1 <0>        0.00000
     36 H7          0.7145   -2.0625    0.0000 H         1 <0>        0.00000
     37 H8          1.4289   -2.4750    0.0000 H         1 <0>        0.00000
     38 H9          1.4289   -2.4750    0.0000 H         1 <0>        0.00000
     39 H10         2.1434   -1.2375    0.0000 H         1 <0>        0.00000
     40 H11         2.8579   -0.8250    0.0000 H         1 <0>        0.00000
     41 H12         3.5724   -1.2375    0.0000 H         1 <0>        0.00000
     42 H13         3.5724   -2.0625    0.0000 H         1 <0>        0.00000
     43 H14         2.8579   -2.4750    0.0000 H         1 <0>        0.00000
     44 H15        -2.9441   -3.2955    0.0000 H         1 <0>        0.00000
     45 H16        -3.7511   -3.4670    0.0000 H         1 <0>        0.00000
     46 H17        -4.9841   -2.6663    0.0000 H         1 <0>        0.00000
     47 H18        -4.9841   -2.6663    0.0000 H         1 <0>        0.00000
     48 H19        -6.1266   -1.7411    0.0000 H         1 <0>        0.00000
@<TRIPOS>BOND
     1    1    2 1
     2    2    3 2
     3    2    4 1
     4    4    5 2
     5    5    6 1
     6    6    7 2
     7    6    8 1
     8    8    9 1
     9    9   10 1
    10    8   11 1
    11   11   12 1
    12   12   13 1
    13   13   14 ar
    14   14   15 ar
    15   15   16 ar
    16   16   17 ar
    17   17   18 ar
    18   13   18 ar
    19    4   19 1
    20   19   20 2
    21   20   21 1
    22   21   22 2
    23   22   23 1
    24   23   24 1
    25   24   25 1
    26   25   26 2
    27   26   27 1
    28   27   28 2
    29   24   28 1
    30   22   29 1
    31   19   29 1
    32    1   30 1
    33    8   31 1
    34    9   32 1
    35    9   33 1
    36   10   34 1
    37   11   35 1
    38   11   36 1
    39   12   37 1
    40   12   38 1
    41   14   39 1
    42   15   40 1
    43   16   41 1
    44   17   42 1
    45   18   43 1
    46   20   44 1
    47   21   45 1
    48   23   46 1
    49   23   47 1
    50   25   48 1
@<TRIPOS>SUBSTRUCTURE
     1 <0>         1 GROUP 0 A     ****
@<TRIPOS>MOLECULE
304
   53    56     1     0     0
SMALL
NO_CHARGES

@<TRIPOS>ATOM
      1 O1          5.9104    1.5551    0.0000 O.3       1 <0>        0.00000
      2 C1          5.3833    0.5186    0.0000 C.3       1 <0>        0.00000
      3 C2          5.3833   -0.3064    0.0000 C.3       1 <0>        0.00000
      4 C3          4.6689   -0.7189    0.0000 C.3       1 <0>        0.00000
      5 C4          3.9544   -0.3064    0.0000 C.3       1 <0>        0.00000
      6 C5          6.1640    0.7700    0.0000 C.3       1 <0>        0.00000
      7 C6          6.1640   -0.5579    0.0000 C.3       1 <0>        0.00000
      8 C7          4.6689    0.9311    0.0000 C.3       1 <0>        0.00000
      9 C8          6.6455    0.1061    0.0000 C.3       1 <0>        0.00000
     10 C9          3.2036   -0.7246    0.0000 C.3       1 <0>        0.00000
     11 C10         4.6821   -1.5783    0.0000 C.3       1 <0>        0.00000
     12 C11         3.9544    0.5186    0.0000 C.2       1 <0>        0.00000
     13 C12         5.3833    1.3436    0.0000 C.3       1 <0>        0.00000
     14 C13         3.9412   -2.0136    0.0000 C.3       1 <0>        0.00000
     15 C14         3.1970   -1.5840    0.0000 C.2       1 <0>        0.00000
     16 C15         2.4389   -0.2592    0.0000 C.3       1 <0>        0.00000
     17 C16         4.6689    1.7561    0.0000 C.3       1 <0>        0.00000
     18 C17         6.8323    1.2538    0.0000 C.1       1 <0>        0.00000
     19 C18         1.6570   -0.6948    0.0000 C.3       1 <0>        0.00000
     20 C19         2.4252   -2.0375    0.0000 C.2       1 <0>        0.00000
     21 C20         3.2399    0.9311    0.0000 C.2       1 <0>        0.00000
     22 C21         1.6500   -1.5899    0.0000 C.3       1 <0>        0.00000
     23 C22         7.5006    1.7376    0.0000 C.1       1 <0>        0.00000
     24 H1          5.4532   -0.9628    0.0000 H         1 <0>        0.00000
     25 H2          5.2430   -1.0446    0.0000 H         1 <0>        0.00000
     26 H3          4.5260    0.0236    0.0000 H         1 <0>        0.00000
     27 H4          3.2163   -0.0647    0.0000 H         1 <0>        0.00000
     28 H5          5.9104    1.5551    0.0000 H         1 <0>        0.00000
     29 H6          6.1640   -0.5579    0.0000 H         1 <0>        0.00000
     30 H7          6.1640   -0.5579    0.0000 H         1 <0>        0.00000
     31 H8          4.6689    0.9311    0.0000 H         1 <0>        0.00000
     32 H9          4.6689    0.9311    0.0000 H         1 <0>        0.00000
     33 H10         6.6455    0.1061    0.0000 H         1 <0>        0.00000
     34 H11         6.6455    0.1061    0.0000 H         1 <0>        0.00000
     35 H12         4.6821   -1.5783    0.0000 H         1 <0>        0.00000
     36 H13         4.6821   -1.5783    0.0000 H         1 <0>        0.00000
     37 H14         5.3833    1.3436    0.0000 H         1 <0>        0.00000
     38 H15         5.3833    1.3436    0.0000 H         1 <0>        0.00000
     39 H16         3.9412   -2.0136    0.0000 H         1 <0>        0.00000
     40 H17         3.9412   -2.0136    0.0000 H         1 <0>        0.00000
     41 H18         2.4389   -0.2592    0.0000 H         1 <0>        0.00000
     42 H19         2.4389   -0.2592    0.0000 H         1 <0>        0.00000
     43 H20         4.6689    1.7561    0.0000 H         1 <0>        0.00000
     44 H21         4.6689    1.7561    0.0000 H         1 <0>        0.00000
     45 H22         4.6689    1.7561    0.0000 H         1 <0>        0.00000
     46 H23         1.6570   -0.6948    0.0000 H         1 <0>        0.00000
     47 H24         1.6570   -0.6948    0.0000 H         1 <0>        0.00000
     48 H25         2.4252   -2.0375    0.0000 H         1 <0>        0.00000
     49 H26         3.2399    0.9311    0.0000 H         1 <0>        0.00000
     50 H27         3.2399    0.9311    0.0000 H         1 <0>        0.00000
     51 H28         1.6500   -1.5899    0.0000 H         1 <0>        0.00000
     52 H29         1.6500   -1.5899    0.0000 H         1 <0>        0.00000
     53 H30         7.5006    1.7376    0.0000 H         1 <0>        0.00000
@<TRIPOS>BOND
     1    1    6 1
     2    2    3 1
     3    2    6 1
     4    2    8 1
     5    2   13 1
     6    3    4 1
     7    3    7 1
     8    3   24 1
     9    4    5 1
    10    4   11 1
    11    4   25 1
    12    5   10 1
    13    5   12 1
    14    5   26 1
    15    6    9 1
    16    6   18 1
    17    7    9 1
    18    8   12 1
    19   10   15 1
    20   10   16 1
    21   10   27 1
    22   11   14 1
    23   12   21 2
    24   13   17 1
    25   14   15 1
    26   15   20 2
    27   16   19 1
    28   18   23 3
    29   19   22 1
    30   20   22 1
    31    1   28 1
    32    7   29 1
    33    7   30 1
    34    8   31 1
    35    8   32 1
    36    9   33 1
    37    9   34 1
    38   11   35 1
    39   11   36 1
    40   13   37 1
    41   13   38 1
    42   14   39 1
    43   14   40 1
    44   16   41 1
    45   16   42 1
    46   17   43 1
    47   17   44 1
    48   17   45 1
    49   19   46 1
    50   19   47 1
    51   20   48 1
    52   21   49 1
    53   21   50 1
    54   22   51 1
    55   22   52 1
    56   23   53 1
@<TRIPOS>SUBSTRUCTURE
     1 <0>         1 GROUP 0 A     ****
@<TRIPOS>MOLECULE
MiniDrugBank_41
   22    22     1     0     0
SMALL
NO_CHARGES

@<TRIPOS>ATOM
      1 C1          1.4289    0.0000    0.0000 C.ar      1 <0>        0.00000
      2 C2          0.7145   -0.4125    0.0000 C.ar      1 <0>        0.00000
      3 C3          0.0000    0.0000    0.0000 C.ar      1 <0>        0.00000
      4 C4          0.0000    0.8250    0.0000 C.ar      1 <0>        0.00000
      5 C5          0.7145    1.2375    0.0000 C.ar      1 <0>        0.00000
      6 C6          1.4289    0.8250    0.0000 C.ar      1 <0>        0.00000
      7 I1          0.7145    2.0625    0.0000 I         1 <0>        0.00000
      8 C7         -0.7145   -0.4125    0.0000 C.3       1 <0>        0.00000
      9 N1         -0.7145   -1.2375    0.0000 N.2       1 <0>        0.00000
     10 C8         -1.4289   -1.6500    0.0000 C.2       1 <0>        0.00000
     11 N2         -1.4289   -2.4750    0.0000 N.pl3     1 <0>        0.00000
     12 N3         -2.1434   -1.2375    0.0000 N.pl3     1 <0>        0.00000
     13 H1          1.4289    0.0000    0.0000 H         1 <0>        0.00000
     14 H2          0.7145   -0.4125    0.0000 H         1 <0>        0.00000
     15 H3          0.0000    0.8250    0.0000 H         1 <0>        0.00000
     16 H4          1.4289    0.8250    0.0000 H         1 <0>        0.00000
     17 H5         -0.7145   -0.4125    0.0000 H         1 <0>        0.00000
     18 H6         -0.7145   -0.4125    0.0000 H         1 <0>        0.00000
     19 H7         -1.4289   -2.4750    0.0000 H         1 <0>        0.00000
     20 H8         -1.4289   -2.4750    0.0000 H         1 <0>        0.00000
     21 H9         -2.1434   -1.2375    0.0000 H         1 <0>        0.00000
     22 H10        -2.1434   -1.2375    0.0000 H         1 <0>        0.00000
@<TRIPOS>BOND
     1    1    2 ar
     2    2    3 ar
     3    3    4 ar
     4    4    5 ar
     5    5    6 ar
     6    1    6 ar
     7    5    7 1
     8    3    8 1
     9    8    9 1
    10    9   10 2
    11   10   11 1
    12   10   12 1
    13    1   13 1
    14    2   14 1
    15    4   15 1
    16    6   16 1
    17    8   17 1
    18    8   18 1
    19   11   19 1
    20   11   20 1
    21   12   21 1
    22   12   22 1
@<TRIPOS>SUBSTRUCTURE
     1 <0>         1 GROUP 0 A     ****
@<TRIPOS>MOLECULE
MiniDrugBank_42
   75    78     1     0     0
SMALL
NO_CHARGES

@<TRIPOS>ATOM
      1 C1         -5.9471    9.0388    0.0000 C.3       1 <0>        0.00000
      2 C2         -5.3060    9.5580    0.0000 C.3       1 <0>        0.00000
      3 C3         -4.6648   10.0772    0.0000 C.3       1 <0>        0.00000
      4 C4         -5.8251   10.1991    0.0000 C.2       1 <0>        0.00000
      5 O1         -5.5295   10.9693    0.0000 O.2       1 <0>        0.00000
      6 O2         -6.6400   10.0701    0.0000 O.3       1 <0>        0.00000
      7 O3         -4.7868    8.9168    0.0000 O.3       1 <0>        0.00000
      8 N1         -5.0824    8.1466    0.0000 N.2       1 <0>        0.00000
      9 C5         -4.5632    7.5055    0.0000 C.2       1 <0>        0.00000
     10 C6         -4.8589    6.7353    0.0000 C.ar      1 <0>        0.00000
     11 N2         -4.4096    6.0434    0.0000 N.ar      1 <0>        0.00000
     12 C7         -4.9288    5.4022    0.0000 C.ar      1 <0>        0.00000
     13 S1         -5.6990    5.6979    0.0000 S.3       1 <0>        0.00000
     14 N3         -5.6558    6.5217    0.0000 N.ar      1 <0>        0.00000
     15 N4         -4.7152    4.6053    0.0000 N.pl3     1 <0>        0.00000
     16 C8         -3.7484    7.6345    0.0000 C.2       1 <0>        0.00000
     17 O4         -3.4527    8.4047    0.0000 O.2       1 <0>        0.00000
     18 N5         -3.2292    6.9934    0.0000 N.am      1 <0>        0.00000
     19 C9         -2.4144    7.1224    0.0000 C.3       1 <0>        0.00000
     20 C10        -1.7469    6.6375    0.0000 C.3       1 <0>        0.00000
     21 N6         -1.2620    7.3050    0.0000 N.am      1 <0>        0.00000
     22 C11        -1.9294    7.7899    0.0000 C.2       1 <0>        0.00000
     23 O5         -2.0585    8.6047    0.0000 O.2       1 <0>        0.00000
     24 C12        -0.4415    7.2187    0.0000 C.2       1 <0>        0.00000
     25 C13        -0.1060    6.4651    0.0000 C.2       1 <0>        0.00000
     26 C14        -0.5909    5.7976    0.0000 C.3       1 <0>        0.00000
     27 S2         -1.4114    5.8838    0.0000 S.3       1 <0>        0.00000
     28 C15         0.7144    6.3788    0.0000 C.3       1 <0>        0.00000
     29 N7          1.0500    5.6251    0.0000 N.ar      1 <0>        0.00000
     30 C16         1.8570    5.4536    0.0000 C.ar      1 <0>        0.00000
     31 C17         1.9432    4.6331    0.0000 C.ar      1 <0>        0.00000
     32 C18         1.1895    4.2976    0.0000 C.ar      1 <0>        0.00000
     33 N8          0.6375    4.9107    0.0000 N.pl3     1 <0>        0.00000
     34 C19        -0.1829    4.8244    0.0000 C.3       1 <0>        0.00000
     35 N9          1.0180    3.4906    0.0000 N.pl3     1 <0>        0.00000
     36 N10         2.6577    4.2206    0.0000 N.am      1 <0>        0.00000
     37 C20         3.3721    4.6331    0.0000 C.2       1 <0>        0.00000
     38 O6          3.3721    5.4581    0.0000 O.2       1 <0>        0.00000
     39 N11         4.0866    4.2206    0.0000 N.am      1 <0>        0.00000
     40 C21         4.8011    4.6331    0.0000 C.3       1 <0>        0.00000
     41 C22         5.5155    4.2206    0.0000 C.3       1 <0>        0.00000
     42 N12         6.2300    4.6331    0.0000 N.3       1 <0>        0.00000
     43 C23         0.0433    7.8862    0.0000 C.2       1 <0>        0.00000
     44 O7          0.8638    7.7999    0.0000 O.co2     1 <0>        0.00000
     45 O8         -0.2922    8.6398    0.0000 O.co2     1 <0>        0.00000
     46 H1         -5.9471    9.0388    0.0000 H         1 <0>        0.00000
     47 H2         -5.9471    9.0388    0.0000 H         1 <0>        0.00000
     48 H3         -5.9471    9.0388    0.0000 H         1 <0>        0.00000
     49 H4         -4.6648   10.0772    0.0000 H         1 <0>        0.00000
     50 H5         -4.6648   10.0772    0.0000 H         1 <0>        0.00000
     51 H6         -4.6648   10.0772    0.0000 H         1 <0>        0.00000
     52 H7         -6.6400   10.0701    0.0000 H         1 <0>        0.00000
     53 H8         -4.7152    4.6053    0.0000 H         1 <0>        0.00000
     54 H9         -4.7152    4.6053    0.0000 H         1 <0>        0.00000
     55 H10        -3.2292    6.9934    0.0000 H         1 <0>        0.00000
     56 H11        -2.4144    7.1224    0.0000 H         1 <0>        0.00000
     57 H12        -1.7469    6.6375    0.0000 H         1 <0>        0.00000
     58 H13        -0.5909    5.7976    0.0000 H         1 <0>        0.00000
     59 H14        -0.5909    5.7976    0.0000 H         1 <0>        0.00000
     60 H15         0.7144    6.3788    0.0000 H         1 <0>        0.00000
     61 H16         0.7144    6.3788    0.0000 H         1 <0>        0.00000
     62 H17         1.8570    5.4536    0.0000 H         1 <0>        0.00000
     63 H18        -0.1829    4.8244    0.0000 H         1 <0>        0.00000
     64 H19        -0.1829    4.8244    0.0000 H         1 <0>        0.00000
     65 H20        -0.1829    4.8244    0.0000 H         1 <0>        0.00000
     66 H21         1.0180    3.4906    0.0000 H         1 <0>        0.00000
     67 H22         1.0180    3.4906    0.0000 H         1 <0>        0.00000
     68 H23         2.6577    4.2206    0.0000 H         1 <0>        0.00000
     69 H24         4.0866    4.2206    0.0000 H         1 <0>        0.00000
     70 H25         4.8011    4.6331    0.0000 H         1 <0>        0.00000
     71 H26         4.8011    4.6331    0.0000 H         1 <0>        0.00000
     72 H27         5.5155    4.2206    0.0000 H         1 <0>        0.00000
     73 H28         5.5155    4.2206    0.0000 H         1 <0>        0.00000
     74 H29         6.2300    4.6331    0.0000 H         1 <0>        0.00000
     75 H30         6.2300    4.6331    0.0000 H         1 <0>        0.00000
@<TRIPOS>BOND
     1    1    2 1
     2    2    3 1
     3    2    4 1
     4    4    5 2
     5    4    6 1
     6    2    7 1
     7    7    8 1
     8    8    9 2
     9    9   10 1
    10   10   11 1
    11   11   12 2
    12   12   13 1
    13   13   14 1
    14   10   14 2
    15   12   15 1
    16    9   16 1
    17   16   17 2
    18   16   18 am
    19   18   19 1
    20   19   20 1
    21   20   21 1
    22   21   22 am
    23   19   22 1
    24   22   23 2
    25   21   24 1
    26   24   25 2
    27   25   26 1
    28   26   27 1
    29   20   27 1
    30   25   28 1
    31   28   29 1
    32   29   30 2
    33   30   31 1
    34   31   32 2
    35   32   33 1
    36   29   33 1
    37   33   34 1
    38   32   35 1
    39   31   36 1
    40   36   37 am
    41   37   38 2
    42   37   39 am
    43   39   40 1
    44   40   41 1
    45   41   42 1
    46   24   43 1
    47   43   44 2
    48   43   45 1
    49    1   46 1
    50    1   47 1
    51    1   48 1
    52    3   49 1
    53    3   50 1
    54    3   51 1
    55    6   52 1
    56   15   53 1
    57   15   54 1
    58   18   55 1
    59   19   56 1
    60   20   57 1
    61   26   58 1
    62   26   59 1
    63   28   60 1
    64   28   61 1
    65   30   62 1
    66   34   63 1
    67   34   64 1
    68   34   65 1
    69   35   66 1
    70   35   67 1
    71   36   68 1
    72   39   69 1
    73   40   70 1
    74   40   71 1
    75   41   72 1
    76   41   73 1
    77   42   74 1
    78   42   75 1
@<TRIPOS>SUBSTRUCTURE
     1 <0>         1 GROUP 0 A     ****
@<TRIPOS>MOLECULE
MiniDrugBank_43
   53    56     1     0     0
SMALL
NO_CHARGES

@<TRIPOS>ATOM
      1 O1          7.7832    1.5550    0.0000 O.3       1 <0>        0.00000
      2 O2          2.0939   -1.5843    0.0000 O.3       1 <0>        0.00000
      3 N1          2.8068   -1.9996    0.0000 N.2       1 <0>        0.00000
      4 C1          7.2561    0.5186    0.0000 C.3       1 <0>        0.00000
      5 C2          7.2561   -0.3064    0.0000 C.3       1 <0>        0.00000
      6 C3          6.5417   -0.7189    0.0000 C.3       1 <0>        0.00000
      7 C4          5.8272   -0.3064    0.0000 C.3       1 <0>        0.00000
      8 C5          8.0367    0.7700    0.0000 C.3       1 <0>        0.00000
      9 C6          6.5417    0.9311    0.0000 C.3       1 <0>        0.00000
     10 C7          8.0367   -0.5579    0.0000 C.3       1 <0>        0.00000
     11 C8          5.8272    0.5186    0.0000 C.3       1 <0>        0.00000
     12 C9          5.0765   -0.7246    0.0000 C.3       1 <0>        0.00000
     13 C10         8.5182    0.1061    0.0000 C.3       1 <0>        0.00000
     14 C11         6.5549   -1.5782    0.0000 C.3       1 <0>        0.00000
     15 C12         7.2561    1.3436    0.0000 C.3       1 <0>        0.00000
     16 C13         5.8140   -2.0136    0.0000 C.3       1 <0>        0.00000
     17 C14         5.0698   -1.5839    0.0000 C.2       1 <0>        0.00000
     18 C15         4.3118   -0.2592    0.0000 C.3       1 <0>        0.00000
     19 C16         6.5417    1.7561    0.0000 C.3       1 <0>        0.00000
     20 C17         8.7051    1.2538    0.0000 C.1       1 <0>        0.00000
     21 C18         3.5298   -0.6948    0.0000 C.3       1 <0>        0.00000
     22 C19         4.2981   -2.0374    0.0000 C.2       1 <0>        0.00000
     23 C20         3.5229   -1.5899    0.0000 C.2       1 <0>        0.00000
     24 C21         9.3733    1.7375    0.0000 C.1       1 <0>        0.00000
     25 H1          7.3260   -0.9628    0.0000 H         1 <0>        0.00000
     26 H2          7.1158   -1.0445    0.0000 H         1 <0>        0.00000
     27 H3          6.3988    0.0236    0.0000 H         1 <0>        0.00000
     28 H4          5.0892   -0.0647    0.0000 H         1 <0>        0.00000
     29 H5          7.7832    1.5550    0.0000 H         1 <0>        0.00000
     30 H6          2.0939   -1.5843    0.0000 H         1 <0>        0.00000
     31 H7          6.5417    0.9311    0.0000 H         1 <0>        0.00000
     32 H8          6.5417    0.9311    0.0000 H         1 <0>        0.00000
     33 H9          8.0367   -0.5579    0.0000 H         1 <0>        0.00000
     34 H10         8.0367   -0.5579    0.0000 H         1 <0>        0.00000
     35 H11         5.8272    0.5186    0.0000 H         1 <0>        0.00000
     36 H12         5.8272    0.5186    0.0000 H         1 <0>        0.00000
     37 H13         8.5182    0.1061    0.0000 H         1 <0>        0.00000
     38 H14         8.5182    0.1061    0.0000 H         1 <0>        0.00000
     39 H15         6.5549   -1.5782    0.0000 H         1 <0>        0.00000
     40 H16         6.5549   -1.5782    0.0000 H         1 <0>        0.00000
     41 H17         7.2561    1.3436    0.0000 H         1 <0>        0.00000
     42 H18         7.2561    1.3436    0.0000 H         1 <0>        0.00000
     43 H19         5.8140   -2.0136    0.0000 H         1 <0>        0.00000
     44 H20         5.8140   -2.0136    0.0000 H         1 <0>        0.00000
     45 H21         4.3118   -0.2592    0.0000 H         1 <0>        0.00000
     46 H22         4.3118   -0.2592    0.0000 H         1 <0>        0.00000
     47 H23         6.5417    1.7561    0.0000 H         1 <0>        0.00000
     48 H24         6.5417    1.7561    0.0000 H         1 <0>        0.00000
     49 H25         6.5417    1.7561    0.0000 H         1 <0>        0.00000
     50 H26         3.5298   -0.6948    0.0000 H         1 <0>        0.00000
     51 H27         3.5298   -0.6948    0.0000 H         1 <0>        0.00000
     52 H28         4.2981   -2.0374    0.0000 H         1 <0>        0.00000
     53 H29         9.3733    1.7375    0.0000 H         1 <0>        0.00000
@<TRIPOS>BOND
     1    1    8 1
     2    2    3 1
     3    3   23 2
     4    4    5 1
     5    4    8 1
     6    4    9 1
     7    4   15 1
     8    5    6 1
     9    5   10 1
    10    5   25 1
    11    6    7 1
    12    6   14 1
    13    6   26 1
    14    7   11 1
    15    7   12 1
    16    7   27 1
    17    8   13 1
    18    8   20 1
    19    9   11 1
    20   10   13 1
    21   12   17 1
    22   12   18 1
    23   12   28 1
    24   14   16 1
    25   15   19 1
    26   16   17 1
    27   17   22 2
    28   18   21 1
    29   20   24 3
    30   21   23 1
    31   22   23 1
    32    1   29 1
    33    2   30 1
    34    9   31 1
    35    9   32 1
    36   10   33 1
    37   10   34 1
    38   11   35 1
    39   11   36 1
    40   13   37 1
    41   13   38 1
    42   14   39 1
    43   14   40 1
    44   15   41 1
    45   15   42 1
    46   16   43 1
    47   16   44 1
    48   18   45 1
    49   18   46 1
    50   19   47 1
    51   19   48 1
    52   19   49 1
    53   21   50 1
    54   21   51 1
    55   22   52 1
    56   24   53 1
@<TRIPOS>SUBSTRUCTURE
     1 <0>         1 GROUP 0 A     ****
@<TRIPOS>MOLECULE
MiniDrugBank_44
   66    69     1     0     0
SMALL
NO_CHARGES

@<TRIPOS>ATOM
      1 N1          4.1960   -5.8286    0.0000 N.pl3     1 <0>        0.00000
      2 C1          3.3890   -6.0001    0.0000 C.2       1 <0>        0.00000
      3 N2          2.8370   -5.3870    0.0000 N.pl3     1 <0>        0.00000
      4 C2          2.0300   -5.5585    0.0000 C.3       1 <0>        0.00000
      5 C3          1.4780   -4.9454    0.0000 C.3       1 <0>        0.00000
      6 C4          1.7329   -4.1608    0.0000 C.3       1 <0>        0.00000
      7 C5          2.5399   -3.9893    0.0000 C.3       1 <0>        0.00000
      8 C6          3.0919   -4.6024    0.0000 C.3       1 <0>        0.00000
      9 C7          1.1809   -3.5477    0.0000 C.3       1 <0>        0.00000
     10 N3          1.4358   -2.7631    0.0000 N.am      1 <0>        0.00000
     11 C8          0.8838   -2.1500    0.0000 C.2       1 <0>        0.00000
     12 O1          0.0768   -2.3215    0.0000 O.2       1 <0>        0.00000
     13 C9          1.1387   -1.3654    0.0000 C.3       1 <0>        0.00000
     14 C10         0.6538   -0.6979    0.0000 C.3       1 <0>        0.00000
     15 C11         1.1387   -0.0305    0.0000 C.3       1 <0>        0.00000
     16 C12         1.9233   -0.2854    0.0000 C.3       1 <0>        0.00000
     17 C13         2.6378    0.1271    0.0000 C.3       1 <0>        0.00000
     18 N4          3.3523   -0.2854    0.0000 N.pl3     1 <0>        0.00000
     19 C14         3.3523   -1.1104    0.0000 C.3       1 <0>        0.00000
     20 C15         2.6378   -1.5229    0.0000 C.2       1 <0>        0.00000
     21 O2          2.6378   -2.3479    0.0000 O.2       1 <0>        0.00000
     22 N5          1.9233   -1.1104    0.0000 N.am      1 <0>        0.00000
     23 S1          4.0668    0.1271    0.0000 S.o2      1 <0>        0.00000
     24 O3          3.6543    0.8415    0.0000 O.2       1 <0>        0.00000
     25 O4          4.4793   -0.5874    0.0000 O.2       1 <0>        0.00000
     26 C16         4.7812    0.5396    0.0000 C.3       1 <0>        0.00000
     27 C17         5.4957    0.1271    0.0000 C.ar      1 <0>        0.00000
     28 C18         6.2102    0.5396    0.0000 C.ar      1 <0>        0.00000
     29 C19         6.9246    0.1271    0.0000 C.ar      1 <0>        0.00000
     30 C20         6.9246   -0.6979    0.0000 C.ar      1 <0>        0.00000
     31 C21         6.2102   -1.1104    0.0000 C.ar      1 <0>        0.00000
     32 C22         5.4957   -0.6979    0.0000 C.ar      1 <0>        0.00000
     33 N6          3.1341   -6.7847    0.0000 N.2       1 <0>        0.00000
     34 O5          3.6861   -7.3978    0.0000 O.3       1 <0>        0.00000
     35 H1          4.1960   -5.8286    0.0000 H         1 <0>        0.00000
     36 H2          4.1960   -5.8286    0.0000 H         1 <0>        0.00000
     37 H3          2.0300   -5.5585    0.0000 H         1 <0>        0.00000
     38 H4          2.0300   -5.5585    0.0000 H         1 <0>        0.00000
     39 H5          1.4780   -4.9454    0.0000 H         1 <0>        0.00000
     40 H6          1.4780   -4.9454    0.0000 H         1 <0>        0.00000
     41 H7          1.7329   -4.1608    0.0000 H         1 <0>        0.00000
     42 H8          2.5399   -3.9893    0.0000 H         1 <0>        0.00000
     43 H9          2.5399   -3.9893    0.0000 H         1 <0>        0.00000
     44 H10         3.0919   -4.6024    0.0000 H         1 <0>        0.00000
     45 H11         3.0919   -4.6024    0.0000 H         1 <0>        0.00000
     46 H12         1.1809   -3.5477    0.0000 H         1 <0>        0.00000
     47 H13         1.1809   -3.5477    0.0000 H         1 <0>        0.00000
     48 H14         1.4358   -2.7631    0.0000 H         1 <0>        0.00000
     49 H15         1.1387   -1.3654    0.0000 H         1 <0>        0.00000
     50 H16         0.6538   -0.6979    0.0000 H         1 <0>        0.00000
     51 H17         0.6538   -0.6979    0.0000 H         1 <0>        0.00000
     52 H18         1.1387   -0.0305    0.0000 H         1 <0>        0.00000
     53 H19         1.1387   -0.0305    0.0000 H         1 <0>        0.00000
     54 H20         1.9233   -0.2854    0.0000 H         1 <0>        0.00000
     55 H21         2.6378    0.1271    0.0000 H         1 <0>        0.00000
     56 H22         2.6378    0.1271    0.0000 H         1 <0>        0.00000
     57 H23         3.3523   -1.1104    0.0000 H         1 <0>        0.00000
     58 H24         3.3523   -1.1104    0.0000 H         1 <0>        0.00000
     59 H25         4.7812    0.5396    0.0000 H         1 <0>        0.00000
     60 H26         4.7812    0.5396    0.0000 H         1 <0>        0.00000
     61 H27         6.2102    0.5396    0.0000 H         1 <0>        0.00000
     62 H28         6.9246    0.1271    0.0000 H         1 <0>        0.00000
     63 H29         6.9246   -0.6979    0.0000 H         1 <0>        0.00000
     64 H30         6.2102   -1.1104    0.0000 H         1 <0>        0.00000
     65 H31         5.4957   -0.6979    0.0000 H         1 <0>        0.00000
     66 H32         3.6861   -7.3978    0.0000 H         1 <0>        0.00000
@<TRIPOS>BOND
     1    1    2 1
     2    2    3 1
     3    3    4 1
     4    4    5 1
     5    5    6 1
     6    6    7 1
     7    7    8 1
     8    3    8 1
     9    6    9 1
    10    9   10 1
    11   10   11 am
    12   11   12 2
    13   11   13 1
    14   13   14 1
    15   14   15 1
    16   15   16 1
    17   16   17 1
    18   17   18 1
    19   18   19 1
    20   19   20 1
    21   20   21 2
    22   20   22 am
    23   13   22 1
    24   16   22 1
    25   18   23 1
    26   23   24 2
    27   23   25 2
    28   23   26 1
    29   26   27 1
    30   27   28 ar
    31   28   29 ar
    32   29   30 ar
    33   30   31 ar
    34   31   32 ar
    35   27   32 ar
    36    2   33 2
    37   33   34 1
    38    1   35 1
    39    1   36 1
    40    4   37 1
    41    4   38 1
    42    5   39 1
    43    5   40 1
    44    6   41 1
    45    7   42 1
    46    7   43 1
    47    8   44 1
    48    8   45 1
    49    9   46 1
    50    9   47 1
    51   10   48 1
    52   13   49 1
    53   14   50 1
    54   14   51 1
    55   15   52 1
    56   15   53 1
    57   16   54 1
    58   17   55 1
    59   17   56 1
    60   19   57 1
    61   19   58 1
    62   26   59 1
    63   26   60 1
    64   28   61 1
    65   29   62 1
    66   30   63 1
    67   31   64 1
    68   32   65 1
    69   34   66 1
@<TRIPOS>SUBSTRUCTURE
     1 <0>         1 GROUP 0 A     ****
@<TRIPOS>MOLECULE
3033968
   49    52     1     0     0
SMALL
NO_CHARGES

@<TRIPOS>ATOM
      1 O1          6.6263    1.5550    0.0000 O.3       1 <0>        0.00000
      2 O2          1.6500   -1.9996    0.0000 O.2       1 <0>        0.00000
      3 C1          6.0993    0.5186    0.0000 C.3       1 <0>        0.00000
      4 C2          5.3849   -0.7189    0.0000 C.3       1 <0>        0.00000
      5 C3          6.0993   -0.3064    0.0000 C.3       1 <0>        0.00000
      6 C4          4.6703   -0.3064    0.0000 C.3       1 <0>        0.00000
      7 C5          5.3849    0.9311    0.0000 C.3       1 <0>        0.00000
      8 C6          4.6703    0.5186    0.0000 C.3       1 <0>        0.00000
      9 C7          3.9196   -0.7246    0.0000 C.3       1 <0>        0.00000
     10 C8          6.8799    0.7700    0.0000 C.3       1 <0>        0.00000
     11 C9          5.3981   -1.5782    0.0000 C.3       1 <0>        0.00000
     12 C10         6.0993    1.3436    0.0000 C.3       1 <0>        0.00000
     13 C11         6.8799   -0.5579    0.0000 C.2       1 <0>        0.00000
     14 C12         3.9130   -1.5839    0.0000 C.2       1 <0>        0.00000
     15 C13         4.6572   -2.0136    0.0000 C.3       1 <0>        0.00000
     16 C14         7.3614    0.1061    0.0000 C.2       1 <0>        0.00000
     17 C15         3.1550   -0.2592    0.0000 C.3       1 <0>        0.00000
     18 C16         5.3849    1.7561    0.0000 C.3       1 <0>        0.00000
     19 C17         2.3729   -0.6948    0.0000 C.3       1 <0>        0.00000
     20 C18         3.1413   -2.0374    0.0000 C.2       1 <0>        0.00000
     21 C19         7.5482    1.2538    0.0000 C.1       1 <0>        0.00000
     22 C20         2.3661   -1.5899    0.0000 C.2       1 <0>        0.00000
     23 C21         8.2165    1.7375    0.0000 C.1       1 <0>        0.00000
     24 H1          6.6263    1.5550    0.0000 H         1 <0>        0.00000
     25 H2          5.3849   -0.7189    0.0000 H         1 <0>        0.00000
     26 H3          6.0993   -0.3064    0.0000 H         1 <0>        0.00000
     27 H4          4.6703   -0.3064    0.0000 H         1 <0>        0.00000
     28 H5          5.3849    0.9311    0.0000 H         1 <0>        0.00000
     29 H6          5.3849    0.9311    0.0000 H         1 <0>        0.00000
     30 H7          4.6703    0.5186    0.0000 H         1 <0>        0.00000
     31 H8          4.6703    0.5186    0.0000 H         1 <0>        0.00000
     32 H9          3.9196   -0.7246    0.0000 H         1 <0>        0.00000
     33 H10         5.3981   -1.5782    0.0000 H         1 <0>        0.00000
     34 H11         5.3981   -1.5782    0.0000 H         1 <0>        0.00000
     35 H12         6.0993    1.3436    0.0000 H         1 <0>        0.00000
     36 H13         6.0993    1.3436    0.0000 H         1 <0>        0.00000
     37 H14         6.8799   -0.5579    0.0000 H         1 <0>        0.00000
     38 H15         4.6572   -2.0136    0.0000 H         1 <0>        0.00000
     39 H16         4.6572   -2.0136    0.0000 H         1 <0>        0.00000
     40 H17         7.3614    0.1061    0.0000 H         1 <0>        0.00000
     41 H18         3.1550   -0.2592    0.0000 H         1 <0>        0.00000
     42 H19         3.1550   -0.2592    0.0000 H         1 <0>        0.00000
     43 H20         5.3849    1.7561    0.0000 H         1 <0>        0.00000
     44 H21         5.3849    1.7561    0.0000 H         1 <0>        0.00000
     45 H22         5.3849    1.7561    0.0000 H         1 <0>        0.00000
     46 H23         2.3729   -0.6948    0.0000 H         1 <0>        0.00000
     47 H24         2.3729   -0.6948    0.0000 H         1 <0>        0.00000
     48 H25         3.1413   -2.0374    0.0000 H         1 <0>        0.00000
     49 H26         8.2165    1.7375    0.0000 H         1 <0>        0.00000
@<TRIPOS>BOND
     1    1   10 1
     2    2   22 2
     3    3    5 1
     4    3    7 1
     5    3   10 1
     6    3   12 1
     7    4    5 1
     8    4    6 1
     9    4   11 1
    10    5   13 1
    11    6    8 1
    12    6    9 1
    13    7    8 1
    14    9   14 1
    15    9   17 1
    16   10   16 1
    17   10   21 1
    18   11   15 1
    19   12   18 1
    20   13   16 2
    21   14   15 1
    22   14   20 2
    23   17   19 1
    24   19   22 1
    25   20   22 1
    26   21   23 3
    27    1   24 1
    28    4   25 1
    29    5   26 1
    30    6   27 1
    31    7   28 1
    32    7   29 1
    33    8   30 1
    34    8   31 1
    35    9   32 1
    36   11   33 1
    37   11   34 1
    38   12   35 1
    39   12   36 1
    40   13   37 1
    41   15   38 1
    42   15   39 1
    43   16   40 1
    44   17   41 1
    45   17   42 1
    46   18   43 1
    47   18   44 1
    48   18   45 1
    49   19   46 1
    50   19   47 1
    51   20   48 1
    52   23   49 1
@<TRIPOS>SUBSTRUCTURE
     1 <0>         1 GROUP 0 A     ****
@<TRIPOS>MOLECULE
MiniDrugBank_46
   67    70     1     0     0
SMALL
NO_CHARGES

@<TRIPOS>ATOM
      1 C1         20.0293  -25.3368    0.0000 C.3       1 <0>        0.00000
      2 C2         20.0293  -26.1618    0.0000 C.3       1 <0>        0.00000
      3 C3         20.7718  -26.5743    0.0000 C.3       1 <0>        0.00000
      4 C4         21.4731  -26.1618    0.0000 C.3       1 <0>        0.00000
      5 C5         21.4731  -25.3368    0.0000 C.3       1 <0>        0.00000
      6 C6         20.7718  -24.9243    0.0000 C.3       1 <0>        0.00000
      7 C7         20.7718  -24.0993    0.0000 C.2       1 <0>        0.00000
      8 O1         20.0293  -23.6868    0.0000 O.2       1 <0>        0.00000
      9 N1         21.4731  -23.6868    0.0000 N.am      1 <0>        0.00000
     10 C8         22.1743  -24.0993    0.0000 C.3       1 <0>        0.00000
     11 C9         21.4731  -22.8618    0.0000 C.3       1 <0>        0.00000
     12 N2         20.7718  -27.4406    0.0000 N.am      1 <0>        0.00000
     13 C10        21.4731  -27.8118    0.0000 C.2       1 <0>        0.00000
     14 C11        22.1743  -27.4406    0.0000 C.2       1 <0>        0.00000
     15 O2         21.4731  -28.6781    0.0000 O.2       1 <0>        0.00000
     16 N3         22.8756  -27.8118    0.0000 N.am      1 <0>        0.00000
     17 O3         22.1743  -26.5743    0.0000 O.2       1 <0>        0.00000
     18 C12        23.5768  -27.4406    0.0000 C.ar      1 <0>        0.00000
     19 N4         24.2781  -27.8118    0.0000 N.ar      1 <0>        0.00000
     20 C13        24.9793  -27.3993    0.0000 C.ar      1 <0>        0.00000
     21 C14        24.9793  -26.5743    0.0000 C.ar      1 <0>        0.00000
     22 C15        24.2781  -26.1618    0.0000 C.ar      1 <0>        0.00000
     23 C16        23.5768  -26.6156    0.0000 C.ar      1 <0>        0.00000
     24 Cl1        25.7218  -26.1618    0.0000 Cl        1 <0>        0.00000
     25 N5         19.3281  -26.5743    0.0000 N.am      1 <0>        0.00000
     26 C17        18.6268  -26.2031    0.0000 C.2       1 <0>        0.00000
     27 C18        17.9256  -26.5743    0.0000 C.ar      1 <0>        0.00000
     28 O4         18.6268  -25.3368    0.0000 O.2       1 <0>        0.00000
     29 N6         17.1831  -26.2443    0.0000 N.ar      1 <0>        0.00000
     30 C19        16.6056  -26.8631    0.0000 C.ar      1 <0>        0.00000
     31 C20        17.0181  -27.5643    0.0000 C.ar      1 <0>        0.00000
     32 S1         17.8431  -27.3993    0.0000 S.3       1 <0>        0.00000
     33 C21        15.7806  -26.8631    0.0000 C.3       1 <0>        0.00000
     34 C22        15.3681  -27.5643    0.0000 C.3       1 <0>        0.00000
     35 N7         15.7806  -28.2656    0.0000 N.3       1 <0>        0.00000
     36 C23        16.6056  -28.2656    0.0000 C.3       1 <0>        0.00000
     37 C24        15.3681  -29.0081    0.0000 C.3       1 <0>        0.00000
     38 H1         20.0293  -25.3368    0.0000 H         1 <0>        0.00000
     39 H2         20.0293  -25.3368    0.0000 H         1 <0>        0.00000
     40 H3         20.0293  -26.1618    0.0000 H         1 <0>        0.00000
     41 H4         20.7718  -26.5743    0.0000 H         1 <0>        0.00000
     42 H5         21.4731  -26.1618    0.0000 H         1 <0>        0.00000
     43 H6         21.4731  -26.1618    0.0000 H         1 <0>        0.00000
     44 H7         21.4731  -25.3368    0.0000 H         1 <0>        0.00000
     45 H8         21.4731  -25.3368    0.0000 H         1 <0>        0.00000
     46 H9         20.7718  -24.9243    0.0000 H         1 <0>        0.00000
     47 H10        22.1743  -24.0993    0.0000 H         1 <0>        0.00000
     48 H11        22.1743  -24.0993    0.0000 H         1 <0>        0.00000
     49 H12        22.1743  -24.0993    0.0000 H         1 <0>        0.00000
     50 H13        21.4731  -22.8618    0.0000 H         1 <0>        0.00000
     51 H14        21.4731  -22.8618    0.0000 H         1 <0>        0.00000
     52 H15        21.4731  -22.8618    0.0000 H         1 <0>        0.00000
     53 H16        20.7718  -27.4406    0.0000 H         1 <0>        0.00000
     54 H17        22.8756  -27.8118    0.0000 H         1 <0>        0.00000
     55 H18        24.9793  -27.3993    0.0000 H         1 <0>        0.00000
     56 H19        24.2781  -26.1618    0.0000 H         1 <0>        0.00000
     57 H20        23.5768  -26.6156    0.0000 H         1 <0>        0.00000
     58 H21        19.3281  -26.5743    0.0000 H         1 <0>        0.00000
     59 H22        15.7806  -26.8631    0.0000 H         1 <0>        0.00000
     60 H23        15.7806  -26.8631    0.0000 H         1 <0>        0.00000
     61 H24        15.3681  -27.5643    0.0000 H         1 <0>        0.00000
     62 H25        15.3681  -27.5643    0.0000 H         1 <0>        0.00000
     63 H26        16.6056  -28.2656    0.0000 H         1 <0>        0.00000
     64 H27        16.6056  -28.2656    0.0000 H         1 <0>        0.00000
     65 H28        15.3681  -29.0081    0.0000 H         1 <0>        0.00000
     66 H29        15.3681  -29.0081    0.0000 H         1 <0>        0.00000
     67 H30        15.3681  -29.0081    0.0000 H         1 <0>        0.00000
@<TRIPOS>BOND
     1    1    2 1
     2    2    3 1
     3    3    4 1
     4    4    5 1
     5    5    6 1
     6    1    6 1
     7    6    7 1
     8    7    8 2
     9    7    9 am
    10    9   10 1
    11    9   11 1
    12    3   12 1
    13   12   13 am
    14   13   14 1
    15   13   15 2
    16   14   16 am
    17   14   17 2
    18   16   18 1
    19   18   19 ar
    20   19   20 ar
    21   20   21 ar
    22   21   22 ar
    23   22   23 ar
    24   18   23 ar
    25   21   24 1
    26    2   25 1
    27   25   26 am
    28   26   27 1
    29   26   28 2
    30   27   29 2
    31   29   30 1
    32   30   31 2
    33   31   32 1
    34   27   32 1
    35   30   33 1
    36   33   34 1
    37   34   35 1
    38   35   36 1
    39   31   36 1
    40   35   37 1
    41    1   38 1
    42    1   39 1
    43    2   40 1
    44    3   41 1
    45    4   42 1
    46    4   43 1
    47    5   44 1
    48    5   45 1
    49    6   46 1
    50   10   47 1
    51   10   48 1
    52   10   49 1
    53   11   50 1
    54   11   51 1
    55   11   52 1
    56   12   53 1
    57   16   54 1
    58   20   55 1
    59   22   56 1
    60   23   57 1
    61   25   58 1
    62   33   59 1
    63   33   60 1
    64   34   61 1
    65   34   62 1
    66   36   63 1
    67   36   64 1
    68   37   65 1
    69   37   66 1
    70   37   67 1
@<TRIPOS>SUBSTRUCTURE
     1 <0>         1 GROUP 0 A     ****
@<TRIPOS>MOLECULE
MiniDrugBank_47
   18    19     1     0     0
SMALL
NO_CHARGES

@<TRIPOS>ATOM
      1 C1         -1.0717    0.4125    0.0000 C.ar      1 <0>        0.00000
      2 C2         -1.0717   -0.4125    0.0000 C.ar      1 <0>        0.00000
      3 C3         -0.3572   -0.8250    0.0000 C.ar      1 <0>        0.00000
      4 C4          0.3572   -0.4125    0.0000 C.ar      1 <0>        0.00000
      5 C5          0.3572    0.4125    0.0000 C.ar      1 <0>        0.00000
      6 C6         -0.3572    0.8250    0.0000 C.ar      1 <0>        0.00000
      7 C7          1.0717   -0.8250    0.0000 C.ar      1 <0>        0.00000
      8 C8          1.7861   -0.4125    0.0000 C.ar      1 <0>        0.00000
      9 C9          1.7861    0.4125    0.0000 C.ar      1 <0>        0.00000
     10 N1          1.0717    0.8250    0.0000 N.ar      1 <0>        0.00000
     11 O1         -0.3572    1.6498    0.0000 O.3       1 <0>        0.00000
     12 I1         -1.7861    0.8250    0.0000 I         1 <0>        0.00000
     13 I2         -0.3572   -1.6498    0.0000 I         1 <0>        0.00000
     14 H1         -1.0717   -0.4125    0.0000 H         1 <0>        0.00000
     15 H2          1.0717   -0.8250    0.0000 H         1 <0>        0.00000
     16 H3          1.7861   -0.4125    0.0000 H         1 <0>        0.00000
     17 H4          1.7861    0.4125    0.0000 H         1 <0>        0.00000
     18 H5         -0.3572    1.6498    0.0000 H         1 <0>        0.00000
@<TRIPOS>BOND
     1    1    2 ar
     2    2    3 ar
     3    3    4 ar
     4    4    5 ar
     5    5    6 ar
     6    1    6 ar
     7    4    7 ar
     8    7    8 ar
     9    8    9 ar
    10    9   10 ar
    11    5   10 ar
    12    6   11 1
    13    1   12 1
    14    3   13 1
    15    2   14 1
    16    7   15 1
    17    8   16 1
    18    9   17 1
    19   11   18 1
@<TRIPOS>SUBSTRUCTURE
     1 <0>         1 GROUP 0 A     ****
@<TRIPOS>MOLECULE
MiniDrugBank_48
   18    18     1     0     0
SMALL
NO_CHARGES

@<TRIPOS>ATOM
      1 O1          2.1434    2.0625    0.0000 O.3       1 <0>        0.00000
      2 C1          2.1434    1.2375    0.0000 C.2       1 <0>        0.00000
      3 O2          2.8579    0.8250    0.0000 O.2       1 <0>        0.00000
      4 C2          1.4289    0.8250    0.0000 C.ar      1 <0>        0.00000
      5 C3          1.4289    0.0000    0.0000 C.ar      1 <0>        0.00000
      6 C4          0.7145   -0.4125    0.0000 C.ar      1 <0>        0.00000
      7 S1          0.7145   -1.2375    0.0000 S.3       1 <0>        0.00000
      8 C5          0.0000    0.0000    0.0000 C.ar      1 <0>        0.00000
      9 C6          0.0000    0.8250    0.0000 C.ar      1 <0>        0.00000
     10 C7          0.7145    1.2375    0.0000 C.ar      1 <0>        0.00000
     11 N1          0.7145    2.0625    0.0000 N.pl3     1 <0>        0.00000
     12 O3          0.0000    2.4750    0.0000 O.3       1 <0>        0.00000
     13 O4          1.4289    2.4750    0.0000 O.2       1 <0>        0.00000
     14 H1          2.1434    2.0625    0.0000 H         1 <0>        0.00000
     15 H2          1.4289    0.0000    0.0000 H         1 <0>        0.00000
     16 H3          0.7145   -1.2375    0.0000 H         1 <0>        0.00000
     17 H4          0.0000    0.0000    0.0000 H         1 <0>        0.00000
     18 H5          0.0000    0.8250    0.0000 H         1 <0>        0.00000
@<TRIPOS>BOND
     1    1    2 1
     2    2    3 2
     3    2    4 1
     4    4    5 ar
     5    5    6 ar
     6    6    7 1
     7    6    8 ar
     8    8    9 ar
     9    9   10 ar
    10    4   10 ar
    11   10   11 1
    12   11   12 1
    13   11   13 2
    14    1   14 1
    15    5   15 1
    16    7   16 1
    17    8   17 1
    18    9   18 1
@<TRIPOS>SUBSTRUCTURE
     1 <0>         1 GROUP 0 A     ****
@<TRIPOS>MOLECULE
ZFB
   42    43     1     0     0
SMALL
NO_CHARGES

@<TRIPOS>ATOM
      1 N1         -0.3660    0.2381    0.0000 N.am      1 <0>        0.00000
      2 C1         -0.6360   -0.5415    0.0000 C.2       1 <0>        0.00000
      3 O1         -0.0959   -1.1651    0.0000 O.2       1 <0>        0.00000
      4 O2         -1.4461   -0.6974    0.0000 O.3       1 <0>        0.00000
      5 C2         -1.7162   -1.4769    0.0000 C.3       1 <0>        0.00000
      6 C3         -2.5263   -1.6328    0.0000 C.ar      1 <0>        0.00000
      7 C4         -2.7964   -2.4124    0.0000 C.ar      1 <0>        0.00000
      8 C5         -3.6065   -2.5683    0.0000 C.ar      1 <0>        0.00000
      9 C6         -4.1466   -1.9446    0.0000 C.ar      1 <0>        0.00000
     10 C7         -3.8766   -1.1651    0.0000 C.ar      1 <0>        0.00000
     11 C8         -3.0664   -1.0092    0.0000 C.ar      1 <0>        0.00000
     12 C9          0.4442    0.3940    0.0000 C.3       1 <0>        0.00000
     13 C10         0.9843   -0.2296    0.0000 C.2       1 <0>        0.00000
     14 O3          0.7142   -1.0092    0.0000 O.2       1 <0>        0.00000
     15 C11         1.7944   -0.0737    0.0000 C.3       1 <0>        0.00000
     16 N2          2.3345   -0.6974    0.0000 N.1       1 <0>        0.00000
     17 N3          2.8746   -1.3210    0.0000 N.1       1 <0>        0.00000
     18 C12         0.7142    1.1736    0.0000 C.3       1 <0>        0.00000
     19 C13         1.5243    1.3295    0.0000 C.ar      1 <0>        0.00000
     20 C14         1.7944    2.1090    0.0000 C.ar      1 <0>        0.00000
     21 C15         2.6045    2.2649    0.0000 C.ar      1 <0>        0.00000
     22 C16         3.1446    1.6413    0.0000 C.ar      1 <0>        0.00000
     23 C17         2.8746    0.8617    0.0000 C.ar      1 <0>        0.00000
     24 C18         2.0644    0.7058    0.0000 C.ar      1 <0>        0.00000
     25 H1          0.2530   -0.1578    0.0000 H         1 <0>        0.00000
     26 H2         -0.3660    0.2381    0.0000 H         1 <0>        0.00000
     27 H3         -1.7162   -1.4769    0.0000 H         1 <0>        0.00000
     28 H4         -1.7162   -1.4769    0.0000 H         1 <0>        0.00000
     29 H5         -2.7964   -2.4124    0.0000 H         1 <0>        0.00000
     30 H6         -3.6065   -2.5683    0.0000 H         1 <0>        0.00000
     31 H7         -4.1466   -1.9446    0.0000 H         1 <0>        0.00000
     32 H8         -3.8766   -1.1651    0.0000 H         1 <0>        0.00000
     33 H9         -3.0664   -1.0092    0.0000 H         1 <0>        0.00000
     34 H10         1.7944   -0.0737    0.0000 H         1 <0>        0.00000
     35 H11         1.7944   -0.0737    0.0000 H         1 <0>        0.00000
     36 H12         0.7142    1.1736    0.0000 H         1 <0>        0.00000
     37 H13         0.7142    1.1736    0.0000 H         1 <0>        0.00000
     38 H14         1.7944    2.1090    0.0000 H         1 <0>        0.00000
     39 H15         2.6045    2.2649    0.0000 H         1 <0>        0.00000
     40 H16         3.1446    1.6413    0.0000 H         1 <0>        0.00000
     41 H17         2.8746    0.8617    0.0000 H         1 <0>        0.00000
     42 H18         2.0644    0.7058    0.0000 H         1 <0>        0.00000
@<TRIPOS>BOND
     1    1    2 am
     2    1   12 1
     3    2    3 2
     4    2    4 1
     5    4    5 1
     6    5    6 1
     7    6    7 ar
     8    6   11 ar
     9    7    8 ar
    10    8    9 ar
    11    9   10 ar
    12   10   11 ar
    13   12   13 1
    14   12   18 1
    15   12   25 1
    16   13   14 2
    17   13   15 1
    18   15   16 1
    19   16   17 3
    20   18   19 1
    21   19   20 ar
    22   19   24 ar
    23   20   21 ar
    24   21   22 ar
    25   22   23 ar
    26   23   24 ar
    27    1   26 1
    28    5   27 1
    29    5   28 1
    30    7   29 1
    31    8   30 1
    32    9   31 1
    33   10   32 1
    34   11   33 1
    35   15   34 1
    36   15   35 1
    37   18   36 1
    38   18   37 1
    39   20   38 1
    40   21   39 1
    41   22   40 1
    42   23   41 1
    43   24   42 1
@<TRIPOS>SUBSTRUCTURE
     1 <0>         1 GROUP 0 A     ****
@<TRIPOS>MOLECULE
MiniDrugBank_50
   45    46     1     0     0
SMALL
NO_CHARGES

@<TRIPOS>ATOM
      1 C1         -0.7366    1.7384    0.0000 C.3       1 <0>        0.00000
      2 C2          0.0884    1.7384    0.0000 C.3       1 <0>        0.00000
      3 N1          0.0884    0.9134    0.0000 N.am      1 <0>        0.00000
      4 C3         -0.7366    0.9134    0.0000 C.2       1 <0>        0.00000
      5 S1          0.6718    0.3300    0.0000 S.o2      1 <0>        0.00000
      6 O1          1.2551   -0.2533    0.0000 O.3       1 <0>        0.00000
      7 O2          1.2684    0.9586    0.0000 O.2       1 <0>        0.00000
      8 O3          0.0555   -0.2985    0.0000 O.2       1 <0>        0.00000
      9 O4         -1.3200    0.3300    0.0000 O.2       1 <0>        0.00000
     10 C4          0.6718    2.3218    0.0000 C.3       1 <0>        0.00000
     11 N2         -1.4511    2.1509    0.0000 N.am      1 <0>        0.00000
     12 C5         -2.1655    1.7384    0.0000 C.2       1 <0>        0.00000
     13 O5         -2.1655    0.9134    0.0000 O.2       1 <0>        0.00000
     14 C6         -2.8800    2.1509    0.0000 C.2       1 <0>        0.00000
     15 N3         -2.8800    2.9759    0.0000 N.2       1 <0>        0.00000
     16 S2         -4.3791    0.6585    0.0000 S.3       1 <0>        0.00000
     17 C7         -3.5945    0.9134    0.0000 C.ar      1 <0>        0.00000
     18 C8         -3.5945    1.7384    0.0000 C.ar      1 <0>        0.00000
     19 N4         -4.3791    1.9933    0.0000 N.ar      1 <0>        0.00000
     20 C9         -4.8640    1.3259    0.0000 C.ar      1 <0>        0.00000
     21 O6         -2.1655    3.3884    0.0000 O.3       1 <0>        0.00000
     22 C10        -2.1655    4.2134    0.0000 C.3       1 <0>        0.00000
     23 C11        -1.4511    4.6259    0.0000 C.2       1 <0>        0.00000
     24 O7         -1.4511    5.4509    0.0000 O.2       1 <0>        0.00000
     25 O8         -0.7366    4.2134    0.0000 O.3       1 <0>        0.00000
     26 C12        -2.5780    4.9279    0.0000 C.3       1 <0>        0.00000
     27 C13        -2.9624    3.9999    0.0000 C.3       1 <0>        0.00000
     28 N5         -5.6890    1.3259    0.0000 N.4       1 <0>        0.00000
     29 H1         -0.7366    1.7384    0.0000 H         1 <0>        0.00000
     30 H2          0.0884    1.7384    0.0000 H         1 <0>        0.00000
     31 H3          0.6718    2.3218    0.0000 H         1 <0>        0.00000
     32 H4          0.6718    2.3218    0.0000 H         1 <0>        0.00000
     33 H5          0.6718    2.3218    0.0000 H         1 <0>        0.00000
     34 H6         -1.4511    2.1509    0.0000 H         1 <0>        0.00000
     35 H7         -3.5945    0.9134    0.0000 H         1 <0>        0.00000
     36 H8         -0.7366    4.2134    0.0000 H         1 <0>        0.00000
     37 H9         -2.5780    4.9279    0.0000 H         1 <0>        0.00000
     38 H10        -2.5780    4.9279    0.0000 H         1 <0>        0.00000
     39 H11        -2.5780    4.9279    0.0000 H         1 <0>        0.00000
     40 H12        -2.9624    3.9999    0.0000 H         1 <0>        0.00000
     41 H13        -2.9624    3.9999    0.0000 H         1 <0>        0.00000
     42 H14        -2.9624    3.9999    0.0000 H         1 <0>        0.00000
     43 H15        -5.6890    1.3259    0.0000 H         1 <0>        0.00000
     44 H16        -5.6890    1.3259    0.0000 H         1 <0>        0.00000
     45 H17        -5.6890    1.3259    0.0000 H         1 <0>        0.00000
@<TRIPOS>BOND
     1    1    2 1
     2    2    3 1
     3    1    4 1
     4    3    4 am
     5    3    5 1
     6    5    6 1
     7    5    7 2
     8    5    8 2
     9    4    9 2
    10    2   10 1
    11    1   11 1
    12   11   12 am
    13   12   13 2
    14   12   14 1
    15   14   18 1
    16   14   15 2
    17   16   17 1
    18   16   20 1
    19   17   18 2
    20   18   19 1
    21   19   20 2
    22   15   21 1
    23   21   22 1
    24   22   23 1
    25   23   24 2
    26   23   25 1
    27   22   26 1
    28   22   27 1
    29   20   28 1
    30    1   29 1
    31    2   30 1
    32   10   31 1
    33   10   32 1
    34   10   33 1
    35   11   34 1
    36   17   35 1
    37   25   36 1
    38   26   37 1
    39   26   38 1
    40   26   39 1
    41   27   40 1
    42   27   41 1
    43   27   42 1
    44   28   43 1
    45   28   44 1
    46   28   45 1
@<TRIPOS>SUBSTRUCTURE
     1 <0>         1 GROUP 0 A     ****
@<TRIPOS>MOLECULE
MiniDrugBank_51
   29    29     1     0     0
SMALL
NO_CHARGES

@<TRIPOS>ATOM
      1 C1          0.0000    3.3000    0.0000 C.3       1 <0>        0.00000
      2 C2          0.0000    2.4750    0.0000 C.2       1 <0>        0.00000
      3 O1         -0.7145    2.0625    0.0000 O.2       1 <0>        0.00000
      4 N1          0.7145    2.0625    0.0000 N.am      1 <0>        0.00000
      5 C3          0.7145    1.2375    0.0000 C.ar      1 <0>        0.00000
      6 C4          1.4289    0.8250    0.0000 C.ar      1 <0>        0.00000
      7 C5          1.4289   -0.0000    0.0000 C.ar      1 <0>        0.00000
      8 C6          0.7145   -0.4125    0.0000 C.ar      1 <0>        0.00000
      9 C7          0.0000    0.0000    0.0000 C.ar      1 <0>        0.00000
     10 C8          0.0000    0.8250    0.0000 C.ar      1 <0>        0.00000
     11 I1         -0.7145    1.2375    0.0000 I         1 <0>        0.00000
     12 C9         -0.7145   -0.4125    0.0000 C.2       1 <0>        0.00000
     13 O2         -1.4289    0.0000    0.0000 O.2       1 <0>        0.00000
     14 O3         -0.7145   -1.2375    0.0000 O.3       1 <0>        0.00000
     15 I2          0.7145   -1.2375    0.0000 I         1 <0>        0.00000
     16 C10         2.1434   -0.4125    0.0000 C.2       1 <0>        0.00000
     17 O4          2.8579   -0.0000    0.0000 O.2       1 <0>        0.00000
     18 N2          2.1434   -1.2375    0.0000 N.am      1 <0>        0.00000
     19 C11         2.8579   -1.6500    0.0000 C.3       1 <0>        0.00000
     20 I3          2.1434    1.2375    0.0000 I         1 <0>        0.00000
     21 H1          0.0000    3.3000    0.0000 H         1 <0>        0.00000
     22 H2          0.0000    3.3000    0.0000 H         1 <0>        0.00000
     23 H3          0.0000    3.3000    0.0000 H         1 <0>        0.00000
     24 H4          0.7145    2.0625    0.0000 H         1 <0>        0.00000
     25 H5         -0.7145   -1.2375    0.0000 H         1 <0>        0.00000
     26 H6          2.1434   -1.2375    0.0000 H         1 <0>        0.00000
     27 H7          2.8579   -1.6500    0.0000 H         1 <0>        0.00000
     28 H8          2.8579   -1.6500    0.0000 H         1 <0>        0.00000
     29 H9          2.8579   -1.6500    0.0000 H         1 <0>        0.00000
@<TRIPOS>BOND
     1    1    2 1
     2    2    3 2
     3    2    4 am
     4    4    5 1
     5    5    6 ar
     6    6    7 ar
     7    7    8 ar
     8    8    9 ar
     9    9   10 ar
    10    5   10 ar
    11   10   11 1
    12    9   12 1
    13   12   13 2
    14   12   14 1
    15    8   15 1
    16    7   16 1
    17   16   17 2
    18   16   18 am
    19   18   19 1
    20    6   20 1
    21    1   21 1
    22    1   22 1
    23    1   23 1
    24    4   24 1
    25   14   25 1
    26   18   26 1
    27   19   27 1
    28   19   28 1
    29   19   29 1
@<TRIPOS>SUBSTRUCTURE
     1 <0>         1 GROUP 0 A     ****
@<TRIPOS>MOLECULE
MiniDrugBank_52
   57    57     1     0     0
SMALL
NO_CHARGES

@<TRIPOS>ATOM
      1 C1          0.7111    1.2376    0.0000 C.2       1 <0>        0.00000
      2 N1          1.4275    1.6500    0.0000 N.am      1 <0>        0.00000
      3 O1         -0.0041    1.6518    0.0000 O.2       1 <0>        0.00000
      4 C2          2.1385    1.2376    0.0000 C.3       1 <0>        0.00000
      5 C3          2.8524    1.6509    0.0000 C.3       1 <0>        0.00000
      6 C4          3.5664    1.2376    0.0000 C.3       1 <0>        0.00000
      7 O2          4.2803    1.6509    0.0000 O.3       1 <0>        0.00000
      8 O3          2.8524    2.4776    0.0000 O.3       1 <0>        0.00000
      9 C5          0.7105    0.4151    0.0000 C.ar      1 <0>        0.00000
     10 C6          1.4287    0.0018    0.0000 C.ar      1 <0>        0.00000
     11 C7          1.4287   -0.8248    0.0000 C.ar      1 <0>        0.00000
     12 C8          0.7110   -1.2381    0.0000 C.ar      1 <0>        0.00000
     13 C9         -0.0023   -0.8248    0.0000 C.ar      1 <0>        0.00000
     14 C10        -0.0023    0.0018    0.0000 C.ar      1 <0>        0.00000
     15 I1          0.7100   -2.0647    0.0000 I         1 <0>        0.00000
     16 I2         -0.7186    0.4146    0.0000 I         1 <0>        0.00000
     17 I3          2.1444    0.4154    0.0000 I         1 <0>        0.00000
     18 C11        -0.7186   -1.2376    0.0000 C.2       1 <0>        0.00000
     19 N2         -1.4312   -0.8206    0.0000 N.am      1 <0>        0.00000
     20 C12        -2.1451   -1.2340    0.0000 C.3       1 <0>        0.00000
     21 C13        -2.8591   -0.8206    0.0000 C.3       1 <0>        0.00000
     22 C14        -3.5730   -1.2340    0.0000 C.3       1 <0>        0.00000
     23 O4         -4.2870   -0.8206    0.0000 O.3       1 <0>        0.00000
     24 O5         -0.6800   -2.0643    0.0000 O.2       1 <0>        0.00000
     25 O6         -2.8591    0.0059    0.0000 O.3       1 <0>        0.00000
     26 N3          2.1426   -1.2381    0.0000 N.am      1 <0>        0.00000
     27 C15         2.8566   -0.8290    0.0000 C.3       1 <0>        0.00000
     28 C16         3.5705   -1.2423    0.0000 C.3       1 <0>        0.00000
     29 C17         2.1384   -2.0607    0.0000 C.2       1 <0>        0.00000
     30 O7          1.4205   -2.4704    0.0000 O.2       1 <0>        0.00000
     31 C18         2.8523   -2.4776    0.0000 C.3       1 <0>        0.00000
     32 O8          4.2870   -0.8298    0.0000 O.3       1 <0>        0.00000
     33 O9          3.5764   -2.0644    0.0000 O.3       1 <0>        0.00000
     34 H1          1.4275    1.6500    0.0000 H         1 <0>        0.00000
     35 H2          2.1385    1.2376    0.0000 H         1 <0>        0.00000
     36 H3          2.1385    1.2376    0.0000 H         1 <0>        0.00000
     37 H4          2.8524    1.6509    0.0000 H         1 <0>        0.00000
     38 H5          3.5664    1.2376    0.0000 H         1 <0>        0.00000
     39 H6          3.5664    1.2376    0.0000 H         1 <0>        0.00000
     40 H7          4.2803    1.6509    0.0000 H         1 <0>        0.00000
     41 H8          2.8524    2.4776    0.0000 H         1 <0>        0.00000
     42 H9         -1.4312   -0.8206    0.0000 H         1 <0>        0.00000
     43 H10        -2.1451   -1.2340    0.0000 H         1 <0>        0.00000
     44 H11        -2.1451   -1.2340    0.0000 H         1 <0>        0.00000
     45 H12        -2.8591   -0.8206    0.0000 H         1 <0>        0.00000
     46 H13        -3.5730   -1.2340    0.0000 H         1 <0>        0.00000
     47 H14        -3.5730   -1.2340    0.0000 H         1 <0>        0.00000
     48 H15        -4.2870   -0.8206    0.0000 H         1 <0>        0.00000
     49 H16        -2.8591    0.0059    0.0000 H         1 <0>        0.00000
     50 H17         2.8566   -0.8290    0.0000 H         1 <0>        0.00000
     51 H18         2.8566   -0.8290    0.0000 H         1 <0>        0.00000
     52 H19         3.5705   -1.2423    0.0000 H         1 <0>        0.00000
     53 H20         3.5705   -1.2423    0.0000 H         1 <0>        0.00000
     54 H21         2.8523   -2.4776    0.0000 H         1 <0>        0.00000
     55 H22         2.8523   -2.4776    0.0000 H         1 <0>        0.00000
     56 H23         4.2870   -0.8298    0.0000 H         1 <0>        0.00000
     57 H24         3.5764   -2.0644    0.0000 H         1 <0>        0.00000
@<TRIPOS>BOND
     1    6    7 1
     2    5    8 1
     3    1    9 1
     4    1    2 am
     5    1    3 2
     6    2    4 1
     7    4    5 1
     8   11   12 ar
     9   21   25 1
    10   10   17 1
    11   11   26 1
    12   12   13 ar
    13   26   27 1
    14   13   18 1
    15   27   28 1
    16   13   14 ar
    17   18   19 am
    18    9   14 ar
    19   19   20 1
    20    9   10 ar
    21   20   21 1
    22   21   22 1
    23   12   15 1
    24   22   23 1
    25   10   11 ar
    26   18   24 2
    27   14   16 1
    28   26   29 am
    29   29   30 2
    30   29   31 1
    31    5    6 1
    32   28   32 1
    33   31   33 1
    34    2   34 1
    35    4   35 1
    36    4   36 1
    37    5   37 1
    38    6   38 1
    39    6   39 1
    40    7   40 1
    41    8   41 1
    42   19   42 1
    43   20   43 1
    44   20   44 1
    45   21   45 1
    46   22   46 1
    47   22   47 1
    48   23   48 1
    49   25   49 1
    50   27   50 1
    51   27   51 1
    52   28   52 1
    53   28   53 1
    54   31   54 1
    55   31   55 1
    56   32   56 1
    57   33   57 1
@<TRIPOS>SUBSTRUCTURE
     1 <0>         1 GROUP 0 A     ****
@<TRIPOS>MOLECULE
MiniDrugBank_53
   56    56     1     0     0
SMALL
NO_CHARGES

@<TRIPOS>ATOM
      1 C1         -0.0026    0.8255    0.0000 C.ar      1 <0>        0.00000
      2 C2         -0.0026    0.0005    0.0000 C.ar      1 <0>        0.00000
      3 C3          0.7118   -0.4119    0.0000 C.ar      1 <0>        0.00000
      4 C4          1.4263    0.0005    0.0000 C.ar      1 <0>        0.00000
      5 C5          1.4263    0.8255    0.0000 C.ar      1 <0>        0.00000
      6 C6          0.7118    1.2381    0.0000 C.ar      1 <0>        0.00000
      7 I1          2.1416    1.2385    0.0000 I         1 <0>        0.00000
      8 I2         -0.7171    1.2381    0.0000 I         1 <0>        0.00000
      9 I3          0.7118   -1.2369    0.0000 I         1 <0>        0.00000
     10 N1          2.1418   -0.4119    0.0000 N.am      1 <0>        0.00000
     11 C7         -0.7171   -0.4119    0.0000 C.2       1 <0>        0.00000
     12 N2         -1.4316    0.0005    0.0000 N.am      1 <0>        0.00000
     13 C8         -2.1460   -0.4119    0.0000 C.3       1 <0>        0.00000
     14 C9         -2.8606    0.0005    0.0000 C.3       1 <0>        0.00000
     15 C10        -3.5750   -0.4119    0.0000 C.3       1 <0>        0.00000
     16 O1         -4.2895    0.0005    0.0000 O.3       1 <0>        0.00000
     17 O2         -0.7171   -1.2376    0.0000 O.2       1 <0>        0.00000
     18 O3         -2.8606    0.8251    0.0000 O.3       1 <0>        0.00000
     19 C11         0.7118    2.0626    0.0000 C.2       1 <0>        0.00000
     20 N3          1.4276    2.4759    0.0000 N.am      1 <0>        0.00000
     21 O4         -0.0015    2.4745    0.0000 O.2       1 <0>        0.00000
     22 C12         2.1430    2.0626    0.0000 C.3       1 <0>        0.00000
     23 C13         2.8576    2.4752    0.0000 C.3       1 <0>        0.00000
     24 O5          3.5721    2.0626    0.0000 O.3       1 <0>        0.00000
     25 C14         2.8576    0.0020    0.0000 C.2       1 <0>        0.00000
     26 C15         3.5750   -0.4115    0.0000 C.3       1 <0>        0.00000
     27 O6          2.8571    0.8246    0.0000 O.2       1 <0>        0.00000
     28 C16         2.1423   -1.2382    0.0000 C.3       1 <0>        0.00000
     29 C17         2.8588   -1.6511    0.0000 C.3       1 <0>        0.00000
     30 C18         3.5739   -1.2377    0.0000 C.3       1 <0>        0.00000
     31 O7          2.8593   -2.4759    0.0000 O.3       1 <0>        0.00000
     32 O8          4.2895   -1.6502    0.0000 O.3       1 <0>        0.00000
     33 H1         -1.4316    0.0005    0.0000 H         1 <0>        0.00000
     34 H2         -2.1460   -0.4119    0.0000 H         1 <0>        0.00000
     35 H3         -2.1460   -0.4119    0.0000 H         1 <0>        0.00000
     36 H4         -2.8606    0.0005    0.0000 H         1 <0>        0.00000
     37 H5         -3.5750   -0.4119    0.0000 H         1 <0>        0.00000
     38 H6         -3.5750   -0.4119    0.0000 H         1 <0>        0.00000
     39 H7         -4.2895    0.0005    0.0000 H         1 <0>        0.00000
     40 H8         -2.8606    0.8251    0.0000 H         1 <0>        0.00000
     41 H9          1.4276    2.4759    0.0000 H         1 <0>        0.00000
     42 H10         2.1430    2.0626    0.0000 H         1 <0>        0.00000
     43 H11         2.1430    2.0626    0.0000 H         1 <0>        0.00000
     44 H12         2.8576    2.4752    0.0000 H         1 <0>        0.00000
     45 H13         2.8576    2.4752    0.0000 H         1 <0>        0.00000
     46 H14         3.5721    2.0626    0.0000 H         1 <0>        0.00000
     47 H15         3.5750   -0.4115    0.0000 H         1 <0>        0.00000
     48 H16         3.5750   -0.4115    0.0000 H         1 <0>        0.00000
     49 H17         3.5750   -0.4115    0.0000 H         1 <0>        0.00000
     50 H18         2.1423   -1.2382    0.0000 H         1 <0>        0.00000
     51 H19         2.1423   -1.2382    0.0000 H         1 <0>        0.00000
     52 H20         2.8588   -1.6511    0.0000 H         1 <0>        0.00000
     53 H21         3.5739   -1.2377    0.0000 H         1 <0>        0.00000
     54 H22         3.5739   -1.2377    0.0000 H         1 <0>        0.00000
     55 H23         2.8593   -2.4759    0.0000 H         1 <0>        0.00000
     56 H24         4.2895   -1.6502    0.0000 H         1 <0>        0.00000
@<TRIPOS>BOND
     1    1    2 ar
     2    2    3 ar
     3    3    4 ar
     4    4    5 ar
     5    5    6 ar
     6    1    6 ar
     7    5    7 1
     8    1    8 1
     9    3    9 1
    10    4   10 1
    11    2   11 1
    12   11   12 am
    13   12   13 1
    14   13   14 1
    15   14   15 1
    16   15   16 1
    17   11   17 2
    18   14   18 1
    19    6   19 1
    20   19   20 am
    21   19   21 2
    22   20   22 1
    23   22   23 1
    24   23   24 1
    25   10   25 am
    26   25   26 1
    27   25   27 2
    28   10   28 1
    29   28   29 1
    30   29   30 1
    31   29   31 1
    32   30   32 1
    33   12   33 1
    34   13   34 1
    35   13   35 1
    36   14   36 1
    37   15   37 1
    38   15   38 1
    39   16   39 1
    40   18   40 1
    41   20   41 1
    42   22   42 1
    43   22   43 1
    44   23   44 1
    45   23   45 1
    46   24   46 1
    47   26   47 1
    48   26   48 1
    49   26   49 1
    50   28   50 1
    51   28   51 1
    52   29   52 1
    53   30   53 1
    54   30   54 1
    55   31   55 1
    56   32   56 1
@<TRIPOS>SUBSTRUCTURE
     1 <0>         1 GROUP 0 A     ****
@<TRIPOS>MOLECULE
367
   51    54     1     0     0
SMALL
NO_CHARGES

@<TRIPOS>ATOM
      1 O1          6.6263    1.5550    0.0000 O.3       1 <0>        0.00000
      2 O2          1.6500   -1.9996    0.0000 O.2       1 <0>        0.00000
      3 C1          6.0993    0.5186    0.0000 C.3       1 <0>        0.00000
      4 C2          6.0993   -0.3064    0.0000 C.3       1 <0>        0.00000
      5 C3          5.3849   -0.7189    0.0000 C.3       1 <0>        0.00000
      6 C4          4.6703   -0.3064    0.0000 C.3       1 <0>        0.00000
      7 C5          6.8799    0.7700    0.0000 C.3       1 <0>        0.00000
      8 C6          5.3849    0.9311    0.0000 C.3       1 <0>        0.00000
      9 C7          6.8799   -0.5579    0.0000 C.3       1 <0>        0.00000
     10 C8          4.6703    0.5186    0.0000 C.3       1 <0>        0.00000
     11 C9          3.9196   -0.7246    0.0000 C.3       1 <0>        0.00000
     12 C10         7.3614    0.1061    0.0000 C.3       1 <0>        0.00000
     13 C11         5.3981   -1.5782    0.0000 C.3       1 <0>        0.00000
     14 C12         6.0993    1.3436    0.0000 C.3       1 <0>        0.00000
     15 C13         4.6572   -2.0136    0.0000 C.3       1 <0>        0.00000
     16 C14         3.9130   -1.5839    0.0000 C.2       1 <0>        0.00000
     17 C15         3.1550   -0.2592    0.0000 C.3       1 <0>        0.00000
     18 C16         5.3849    1.7561    0.0000 C.3       1 <0>        0.00000
     19 C17         7.5482    1.2538    0.0000 C.1       1 <0>        0.00000
     20 C18         2.3729   -0.6948    0.0000 C.3       1 <0>        0.00000
     21 C19         3.1413   -2.0374    0.0000 C.2       1 <0>        0.00000
     22 C20         2.3660   -1.5899    0.0000 C.2       1 <0>        0.00000
     23 C21         8.2165    1.7375    0.0000 C.1       1 <0>        0.00000
     24 H1          6.1691   -0.9628    0.0000 H         1 <0>        0.00000
     25 H2          5.9589   -1.0445    0.0000 H         1 <0>        0.00000
     26 H3          5.2420    0.0236    0.0000 H         1 <0>        0.00000
     27 H4          3.9323   -0.0647    0.0000 H         1 <0>        0.00000
     28 H5          6.6263    1.5550    0.0000 H         1 <0>        0.00000
     29 H6          5.3849    0.9311    0.0000 H         1 <0>        0.00000
     30 H7          5.3849    0.9311    0.0000 H         1 <0>        0.00000
     31 H8          6.8799   -0.5579    0.0000 H         1 <0>        0.00000
     32 H9          6.8799   -0.5579    0.0000 H         1 <0>        0.00000
     33 H10         4.6703    0.5186    0.0000 H         1 <0>        0.00000
     34 H11         4.6703    0.5186    0.0000 H         1 <0>        0.00000
     35 H12         7.3614    0.1061    0.0000 H         1 <0>        0.00000
     36 H13         7.3614    0.1061    0.0000 H         1 <0>        0.00000
     37 H14         5.3981   -1.5782    0.0000 H         1 <0>        0.00000
     38 H15         5.3981   -1.5782    0.0000 H         1 <0>        0.00000
     39 H16         6.0993    1.3436    0.0000 H         1 <0>        0.00000
     40 H17         6.0993    1.3436    0.0000 H         1 <0>        0.00000
     41 H18         4.6572   -2.0136    0.0000 H         1 <0>        0.00000
     42 H19         4.6572   -2.0136    0.0000 H         1 <0>        0.00000
     43 H20         3.1550   -0.2592    0.0000 H         1 <0>        0.00000
     44 H21         3.1550   -0.2592    0.0000 H         1 <0>        0.00000
     45 H22         5.3849    1.7561    0.0000 H         1 <0>        0.00000
     46 H23         5.3849    1.7561    0.0000 H         1 <0>        0.00000
     47 H24         5.3849    1.7561    0.0000 H         1 <0>        0.00000
     48 H25         2.3729   -0.6948    0.0000 H         1 <0>        0.00000
     49 H26         2.3729   -0.6948    0.0000 H         1 <0>        0.00000
     50 H27         3.1413   -2.0374    0.0000 H         1 <0>        0.00000
     51 H28         8.2165    1.7375    0.0000 H         1 <0>        0.00000
@<TRIPOS>BOND
     1    1    7 1
     2    2   22 2
     3    3    4 1
     4    3    7 1
     5    3    8 1
     6    3   14 1
     7    4    5 1
     8    4    9 1
     9    4   24 1
    10    5    6 1
    11    5   13 1
    12    5   25 1
    13    6   10 1
    14    6   11 1
    15    6   26 1
    16    7   12 1
    17    7   19 1
    18    8   10 1
    19    9   12 1
    20   11   16 1
    21   11   17 1
    22   11   27 1
    23   13   15 1
    24   14   18 1
    25   15   16 1
    26   16   21 2
    27   17   20 1
    28   19   23 3
    29   20   22 1
    30   21   22 1
    31    1   28 1
    32    8   29 1
    33    8   30 1
    34    9   31 1
    35    9   32 1
    36   10   33 1
    37   10   34 1
    38   12   35 1
    39   12   36 1
    40   13   37 1
    41   13   38 1
    42   14   39 1
    43   14   40 1
    44   15   41 1
    45   15   42 1
    46   17   43 1
    47   17   44 1
    48   18   45 1
    49   18   46 1
    50   18   47 1
    51   20   48 1
    52   20   49 1
    53   21   50 1
    54   23   51 1
@<TRIPOS>SUBSTRUCTURE
     1 <0>         1 GROUP 0 A     ****
@<TRIPOS>MOLECULE
MiniDrugBank_55
   56    56     1     0     0
SMALL
NO_CHARGES

@<TRIPOS>ATOM
      1 C1          7.1447   -1.6500    0.0000 C.3       1 <0>        0.00000
      2 C2         10.7171   -5.3625    0.0000 C.3       1 <0>        0.00000
      3 C3         12.1460   -0.4125    0.0000 C.3       1 <0>        0.00000
      4 C4          6.4302   -0.4125    0.0000 C.3       1 <0>        0.00000
      5 C5         13.5749   -0.4125    0.0000 C.3       1 <0>        0.00000
      6 C6          5.0013   -0.4125    0.0000 C.3       1 <0>        0.00000
      7 C7         10.0026   -4.1250    0.0000 C.3       1 <0>        0.00000
      8 C8         12.8605   -0.8250    0.0000 C.3       1 <0>        0.00000
      9 C9          5.7158   -0.8250    0.0000 C.3       1 <0>        0.00000
     10 C10        10.0026   -3.3000    0.0000 C.2       1 <0>        0.00000
     11 C11        10.0026   -0.8250    0.0000 C.ar      1 <0>        0.00000
     12 C12         8.5737   -0.8250    0.0000 C.ar      1 <0>        0.00000
     13 C13         9.2881   -0.4125    0.0000 C.ar      1 <0>        0.00000
     14 C14        10.0026   -1.6500    0.0000 C.ar      1 <0>        0.00000
     15 C15         8.5737   -1.6500    0.0000 C.ar      1 <0>        0.00000
     16 C16         9.2881   -2.0625    0.0000 C.ar      1 <0>        0.00000
     17 C17        10.7171   -0.4125    0.0000 C.2       1 <0>        0.00000
     18 C18         7.8592   -0.4125    0.0000 C.2       1 <0>        0.00000
     19 I1          9.2881    0.4125    0.0000 I         1 <0>        0.00000
     20 I2         10.7171   -2.0625    0.0000 I         1 <0>        0.00000
     21 I3          7.8592   -2.0625    0.0000 I         1 <0>        0.00000
     22 N1         11.4315   -0.8250    0.0000 N.2       1 <0>        0.00000
     23 N2          9.2881   -2.8875    0.0000 N.2       1 <0>        0.00000
     24 N3          7.1447   -0.8250    0.0000 N.am      1 <0>        0.00000
     25 O1         14.2894   -0.8250    0.0000 O.3       1 <0>        0.00000
     26 O2          4.2868   -0.8250    0.0000 O.3       1 <0>        0.00000
     27 O3         12.8605   -1.6500    0.0000 O.3       1 <0>        0.00000
     28 O4          5.7158   -1.6500    0.0000 O.3       1 <0>        0.00000
     29 O5         10.7171   -2.8875    0.0000 O.3       1 <0>        0.00000
     30 O6         10.7171    0.4125    0.0000 O.3       1 <0>        0.00000
     31 O7          7.8592    0.4125    0.0000 O.2       1 <0>        0.00000
     32 O8         10.7171   -4.5375    0.0000 O.3       1 <0>        0.00000
     33 H1          7.1447   -1.6500    0.0000 H         1 <0>        0.00000
     34 H2          7.1447   -1.6500    0.0000 H         1 <0>        0.00000
     35 H3          7.1447   -1.6500    0.0000 H         1 <0>        0.00000
     36 H4         10.7171   -5.3625    0.0000 H         1 <0>        0.00000
     37 H5         10.7171   -5.3625    0.0000 H         1 <0>        0.00000
     38 H6         10.7171   -5.3625    0.0000 H         1 <0>        0.00000
     39 H7         12.1460   -0.4125    0.0000 H         1 <0>        0.00000
     40 H8         12.1460   -0.4125    0.0000 H         1 <0>        0.00000
     41 H9          6.4302   -0.4125    0.0000 H         1 <0>        0.00000
     42 H10         6.4302   -0.4125    0.0000 H         1 <0>        0.00000
     43 H11        13.5749   -0.4125    0.0000 H         1 <0>        0.00000
     44 H12        13.5749   -0.4125    0.0000 H         1 <0>        0.00000
     45 H13         5.0013   -0.4125    0.0000 H         1 <0>        0.00000
     46 H14         5.0013   -0.4125    0.0000 H         1 <0>        0.00000
     47 H15        10.0026   -4.1250    0.0000 H         1 <0>        0.00000
     48 H16        10.0026   -4.1250    0.0000 H         1 <0>        0.00000
     49 H17        12.8605   -0.8250    0.0000 H         1 <0>        0.00000
     50 H18         5.7158   -0.8250    0.0000 H         1 <0>        0.00000
     51 H19        14.2894   -0.8250    0.0000 H         1 <0>        0.00000
     52 H20         4.2868   -0.8250    0.0000 H         1 <0>        0.00000
     53 H21        12.8605   -1.6500    0.0000 H         1 <0>        0.00000
     54 H22         5.7158   -1.6500    0.0000 H         1 <0>        0.00000
     55 H23        10.7171   -2.8875    0.0000 H         1 <0>        0.00000
     56 H24        10.7171    0.4125    0.0000 H         1 <0>        0.00000
@<TRIPOS>BOND
     1    3    8 1
     2    5    8 1
     3    4    9 1
     4    6    9 1
     5    7   10 1
     6   11   13 ar
     7   12   13 ar
     8   11   14 ar
     9   12   15 ar
    10   14   16 ar
    11   15   16 ar
    12   11   17 1
    13   12   18 1
    14   13   19 1
    15   14   20 1
    16   15   21 1
    17    3   22 1
    18   17   22 2
    19   10   23 2
    20   16   23 1
    21    1   24 1
    22    4   24 1
    23   18   24 am
    24    5   25 1
    25    6   26 1
    26    8   27 1
    27    9   28 1
    28   10   29 1
    29   17   30 1
    30   18   31 2
    31    2   32 1
    32    7   32 1
    33    1   33 1
    34    1   34 1
    35    1   35 1
    36    2   36 1
    37    2   37 1
    38    2   38 1
    39    3   39 1
    40    3   40 1
    41    4   41 1
    42    4   42 1
    43    5   43 1
    44    5   44 1
    45    6   45 1
    46    6   46 1
    47    7   47 1
    48    7   48 1
    49    8   49 1
    50    9   50 1
    51   25   51 1
    52   26   52 1
    53   27   53 1
    54   28   54 1
    55   29   55 1
    56   30   56 1
@<TRIPOS>SUBSTRUCTURE
     1 <0>         1 GROUP 0 A     ****
@<TRIPOS>MOLECULE
MiniDrugBank_56
   58    60     1     0     0
SMALL
NO_CHARGES

@<TRIPOS>ATOM
      1 O1          0.0000   -4.9500    0.0000 O.2       1 <0>        0.00000
      2 C1         -0.7145   -5.3625    0.0000 C.2       1 <0>        0.00000
      3 O2         -1.4289   -4.9500    0.0000 O.3       1 <0>        0.00000
      4 C2         -0.7145   -6.1875    0.0000 C.3       1 <0>        0.00000
      5 N1         -1.4289   -6.6000    0.0000 N.am      1 <0>        0.00000
      6 C3         -2.1434   -6.1875    0.0000 C.2       1 <0>        0.00000
      7 O3         -2.1434   -5.3625    0.0000 O.2       1 <0>        0.00000
      8 C4         -2.8579   -6.6000    0.0000 C.ar      1 <0>        0.00000
      9 C5         -2.8579   -7.4250    0.0000 C.ar      1 <0>        0.00000
     10 C6         -3.5724   -7.8375    0.0000 C.ar      1 <0>        0.00000
     11 C7         -4.2868   -7.4250    0.0000 C.ar      1 <0>        0.00000
     12 C8         -4.2868   -6.6000    0.0000 C.ar      1 <0>        0.00000
     13 C9         -3.5724   -6.1875    0.0000 C.ar      1 <0>        0.00000
     14 C10        -5.0013   -7.8375    0.0000 C.3       1 <0>        0.00000
     15 C11        -5.0013   -8.6625    0.0000 C.3       1 <0>        0.00000
     16 C12        -5.7158   -9.0750    0.0000 C.1       1 <0>        0.00000
     17 C13        -6.4302   -9.4875    0.0000 C.1       1 <0>        0.00000
     18 C14        -5.7158   -7.4250    0.0000 C.3       1 <0>        0.00000
     19 C15        -6.4302   -7.8375    0.0000 C.ar      1 <0>        0.00000
     20 N2         -7.1447   -7.4250    0.0000 N.ar      1 <0>        0.00000
     21 C16        -7.8592   -7.8375    0.0000 C.ar      1 <0>        0.00000
     22 C17        -7.8592   -8.6625    0.0000 C.ar      1 <0>        0.00000
     23 N3         -7.1447   -9.0750    0.0000 N.ar      1 <0>        0.00000
     24 C18        -6.4302   -8.6625    0.0000 C.ar      1 <0>        0.00000
     25 N4         -8.5737   -9.0750    0.0000 N.ar      1 <0>        0.00000
     26 C19        -9.2881   -8.6625    0.0000 C.ar      1 <0>        0.00000
     27 N5         -9.2881   -7.8375    0.0000 N.ar      1 <0>        0.00000
     28 C20        -8.5737   -7.4250    0.0000 C.ar      1 <0>        0.00000
     29 N6         -8.5737   -6.6000    0.0000 N.pl3     1 <0>        0.00000
     30 N7        -10.0026   -9.0750    0.0000 N.pl3     1 <0>        0.00000
     31 C21         0.0000   -6.6000    0.0000 C.3       1 <0>        0.00000
     32 C22         0.7145   -6.1875    0.0000 C.3       1 <0>        0.00000
     33 C23         1.4289   -6.6000    0.0000 C.2       1 <0>        0.00000
     34 O4          2.1434   -6.1875    0.0000 O.2       1 <0>        0.00000
     35 O5          1.4289   -7.4250    0.0000 O.3       1 <0>        0.00000
     36 H1         -1.4289   -4.9500    0.0000 H         1 <0>        0.00000
     37 H2         -0.7145   -6.1875    0.0000 H         1 <0>        0.00000
     38 H3         -1.4289   -6.6000    0.0000 H         1 <0>        0.00000
     39 H4         -2.8579   -7.4250    0.0000 H         1 <0>        0.00000
     40 H5         -3.5724   -7.8375    0.0000 H         1 <0>        0.00000
     41 H6         -4.2868   -6.6000    0.0000 H         1 <0>        0.00000
     42 H7         -3.5724   -6.1875    0.0000 H         1 <0>        0.00000
     43 H8         -5.0013   -7.8375    0.0000 H         1 <0>        0.00000
     44 H9         -5.0013   -8.6625    0.0000 H         1 <0>        0.00000
     45 H10        -5.0013   -8.6625    0.0000 H         1 <0>        0.00000
     46 H11        -6.4302   -9.4875    0.0000 H         1 <0>        0.00000
     47 H12        -5.7158   -7.4250    0.0000 H         1 <0>        0.00000
     48 H13        -5.7158   -7.4250    0.0000 H         1 <0>        0.00000
     49 H14        -6.4302   -8.6625    0.0000 H         1 <0>        0.00000
     50 H15        -8.5737   -6.6000    0.0000 H         1 <0>        0.00000
     51 H16        -8.5737   -6.6000    0.0000 H         1 <0>        0.00000
     52 H17       -10.0026   -9.0750    0.0000 H         1 <0>        0.00000
     53 H18       -10.0026   -9.0750    0.0000 H         1 <0>        0.00000
     54 H19         0.0000   -6.6000    0.0000 H         1 <0>        0.00000
     55 H20         0.0000   -6.6000    0.0000 H         1 <0>        0.00000
     56 H21         0.7145   -6.1875    0.0000 H         1 <0>        0.00000
     57 H22         0.7145   -6.1875    0.0000 H         1 <0>        0.00000
     58 H23         1.4289   -7.4250    0.0000 H         1 <0>        0.00000
@<TRIPOS>BOND
     1    1    2 2
     2    2    3 1
     3    2    4 1
     4    4    5 1
     5    5    6 am
     6    6    7 2
     7    6    8 1
     8    8    9 ar
     9    9   10 ar
    10   10   11 ar
    11   11   12 ar
    12   12   13 ar
    13    8   13 ar
    14   11   14 1
    15   14   15 1
    16   15   16 1
    17   16   17 3
    18   14   18 1
    19   18   19 1
    20   19   20 ar
    21   20   21 ar
    22   21   22 ar
    23   22   23 ar
    24   23   24 ar
    25   19   24 ar
    26   22   25 ar
    27   25   26 ar
    28   26   27 ar
    29   27   28 ar
    30   21   28 ar
    31   28   29 1
    32   26   30 1
    33    4   31 1
    34   31   32 1
    35   32   33 1
    36   33   34 2
    37   33   35 1
    38    3   36 1
    39    4   37 1
    40    5   38 1
    41    9   39 1
    42   10   40 1
    43   12   41 1
    44   13   42 1
    45   14   43 1
    46   15   44 1
    47   15   45 1
    48   17   46 1
    49   18   47 1
    50   18   48 1
    51   24   49 1
    52   29   50 1
    53   29   51 1
    54   30   52 1
    55   30   53 1
    56   31   54 1
    57   31   55 1
    58   32   56 1
    59   32   57 1
    60   35   58 1
@<TRIPOS>SUBSTRUCTURE
     1 <0>         1 GROUP 0 A     ****
@<TRIPOS>MOLECULE
MiniDrugBank_57
   45    46     1     0     0
SMALL
NO_CHARGES

@<TRIPOS>ATOM
      1 C1          8.2105  -13.1304    0.0000 C.ar      1 <0>        0.00000
      2 C2          9.0591  -13.1304    0.0000 C.ar      1 <0>        0.00000
      3 N1          7.9748  -13.9318    0.0000 N.ar      1 <0>        0.00000
      4 N2          9.2948  -13.9083    0.0000 N.ar      1 <0>        0.00000
      5 S1          8.6348  -14.4033    0.0000 S.3       1 <0>        0.00000
      6 N3          7.7391  -12.4940    0.0000 N.pl3     1 <0>        0.00000
      7 O1          9.5070  -12.4233    0.0000 O.3       1 <0>        0.00000
      8 N4         11.9348  -11.0090    0.0000 N.3       1 <0>        0.00000
      9 O2          6.9141  -11.0797    0.0000 O.3       1 <0>        0.00000
     10 C3         10.7091  -11.7397    0.0000 C.3       1 <0>        0.00000
     11 C4         10.3320  -12.4233    0.0000 C.3       1 <0>        0.00000
     12 C5         11.5341  -11.7397    0.0000 C.3       1 <0>        0.00000
     13 C6          6.9141  -12.4940    0.0000 C.3       1 <0>        0.00000
     14 C7          8.1398  -11.7633    0.0000 C.3       1 <0>        0.00000
     15 O3         10.3320  -11.0090    0.0000 O.3       1 <0>        0.00000
     16 C8          7.7391  -11.0797    0.0000 C.3       1 <0>        0.00000
     17 C9          6.5134  -11.7868    0.0000 C.3       1 <0>        0.00000
     18 C10        12.7626  -11.0133    0.0000 C.3       1 <0>        0.00000
     19 C11        13.1788  -10.3009    0.0000 C.3       1 <0>        0.00000
     20 C12        13.1715  -11.7298    0.0000 C.3       1 <0>        0.00000
     21 C13        13.5876  -11.0133    0.0000 C.3       1 <0>        0.00000
     22 H1         11.9348  -11.0090    0.0000 H         1 <0>        0.00000
     23 H2         10.7091  -11.7397    0.0000 H         1 <0>        0.00000
     24 H3         10.3320  -12.4233    0.0000 H         1 <0>        0.00000
     25 H4         10.3320  -12.4233    0.0000 H         1 <0>        0.00000
     26 H5         11.5341  -11.7397    0.0000 H         1 <0>        0.00000
     27 H6         11.5341  -11.7397    0.0000 H         1 <0>        0.00000
     28 H7          6.9141  -12.4940    0.0000 H         1 <0>        0.00000
     29 H8          6.9141  -12.4940    0.0000 H         1 <0>        0.00000
     30 H9          8.1398  -11.7633    0.0000 H         1 <0>        0.00000
     31 H10         8.1398  -11.7633    0.0000 H         1 <0>        0.00000
     32 H11        10.3320  -11.0090    0.0000 H         1 <0>        0.00000
     33 H12         7.7391  -11.0797    0.0000 H         1 <0>        0.00000
     34 H13         7.7391  -11.0797    0.0000 H         1 <0>        0.00000
     35 H14         6.5134  -11.7868    0.0000 H         1 <0>        0.00000
     36 H15         6.5134  -11.7868    0.0000 H         1 <0>        0.00000
     37 H16        13.1788  -10.3009    0.0000 H         1 <0>        0.00000
     38 H17        13.1788  -10.3009    0.0000 H         1 <0>        0.00000
     39 H18        13.1788  -10.3009    0.0000 H         1 <0>        0.00000
     40 H19        13.1715  -11.7298    0.0000 H         1 <0>        0.00000
     41 H20        13.1715  -11.7298    0.0000 H         1 <0>        0.00000
     42 H21        13.1715  -11.7298    0.0000 H         1 <0>        0.00000
     43 H22        13.5876  -11.0133    0.0000 H         1 <0>        0.00000
     44 H23        13.5876  -11.0133    0.0000 H         1 <0>        0.00000
     45 H24        13.5876  -11.0133    0.0000 H         1 <0>        0.00000
@<TRIPOS>BOND
     1    1    2 1
     2    1    3 2
     3    1    6 1
     4    2    4 2
     5    2    7 1
     6    3    5 1
     7    4    5 1
     8    6   13 1
     9    6   14 1
    10    7   11 1
    11    8   12 1
    12    9   16 1
    13    9   17 1
    14   10   11 1
    15   10   12 1
    16   10   15 1
    17   13   17 1
    18   14   16 1
    19    8   18 1
    20   18   19 1
    21   18   20 1
    22   18   21 1
    23    8   22 1
    24   10   23 1
    25   11   24 1
    26   11   25 1
    27   12   26 1
    28   12   27 1
    29   13   28 1
    30   13   29 1
    31   14   30 1
    32   14   31 1
    33   15   32 1
    34   16   33 1
    35   16   34 1
    36   17   35 1
    37   17   36 1
    38   19   37 1
    39   19   38 1
    40   19   39 1
    41   20   40 1
    42   20   41 1
    43   20   42 1
    44   21   43 1
    45   21   44 1
    46   21   45 1
@<TRIPOS>SUBSTRUCTURE
     1 <0>         1 GROUP 0 A     ****
@<TRIPOS>MOLECULE
MiniDrugBank_58
   51    54     1     0     0
SMALL
NO_CHARGES

@<TRIPOS>ATOM
      1 C1          1.1616    0.8390    0.0000 C.3       1 <0>        0.00000
      2 C2          1.7450    0.2556    0.0000 C.3       1 <0>        0.00000
      3 N1          1.1616   -0.3276    0.0000 N.am      1 <0>        0.00000
      4 C3          0.5782    0.2556    0.0000 C.3       1 <0>        0.00000
      5 O1          0.5782    1.4224    0.0000 O.3       1 <0>        0.00000
      6 C4          1.7450    1.4224    0.0000 C.3       1 <0>        0.00000
      7 C5         -0.2672   -1.1526    0.0000 C.ar      1 <0>        0.00000
      8 C6          0.4471   -1.5651    0.0000 C.ar      1 <0>        0.00000
      9 N2         -0.2672   -0.3276    0.0000 N.pl3     1 <0>        0.00000
     10 C7         -0.9818   -1.5651    0.0000 C.ar      1 <0>        0.00000
     11 F1         -1.6962   -1.1526    0.0000 F         1 <0>        0.00000
     12 C8         -0.9818   -2.3901    0.0000 C.ar      1 <0>        0.00000
     13 F2         -1.6962   -2.8026    0.0000 F         1 <0>        0.00000
     14 C9         -0.2672   -2.8026    0.0000 C.ar      1 <0>        0.00000
     15 C10         0.4471   -2.3901    0.0000 C.ar      1 <0>        0.00000
     16 C11         1.1616   -1.1526    0.0000 C.2       1 <0>        0.00000
     17 O2          1.8761   -1.5651    0.0000 O.2       1 <0>        0.00000
     18 C12        -1.6962    1.3223    0.0000 C.ar      1 <0>        0.00000
     19 C13        -0.9818    0.9098    0.0000 C.ar      1 <0>        0.00000
     20 C14        -2.4108    0.9098    0.0000 C.ar      1 <0>        0.00000
     21 C15        -2.4108    0.0848    0.0000 C.ar      1 <0>        0.00000
     22 C16        -1.6962   -0.3276    0.0000 C.ar      1 <0>        0.00000
     23 C17        -0.9818    0.0848    0.0000 C.ar      1 <0>        0.00000
     24 F3         -0.2672    1.3223    0.0000 F         1 <0>        0.00000
     25 I1         -3.1252    1.3223    0.0000 I         1 <0>        0.00000
     26 C18         2.1148    2.8026    0.0000 C.3       1 <0>        0.00000
     27 C19         1.5314    2.2192    0.0000 C.3       1 <0>        0.00000
     28 N3          2.5419    1.2088    0.0000 N.3       1 <0>        0.00000
     29 C20         3.1252    1.7922    0.0000 C.3       1 <0>        0.00000
     30 C21         2.9117    2.5891    0.0000 C.3       1 <0>        0.00000
     31 H1          1.7450    0.2556    0.0000 H         1 <0>        0.00000
     32 H2          1.7450    0.2556    0.0000 H         1 <0>        0.00000
     33 H3          0.5782    0.2556    0.0000 H         1 <0>        0.00000
     34 H4          0.5782    0.2556    0.0000 H         1 <0>        0.00000
     35 H5          0.5782    1.4224    0.0000 H         1 <0>        0.00000
     36 H6          1.7450    1.4224    0.0000 H         1 <0>        0.00000
     37 H7         -0.2672   -0.3276    0.0000 H         1 <0>        0.00000
     38 H8         -0.2672   -2.8026    0.0000 H         1 <0>        0.00000
     39 H9          0.4471   -2.3901    0.0000 H         1 <0>        0.00000
     40 H10        -1.6962    1.3223    0.0000 H         1 <0>        0.00000
     41 H11        -2.4108    0.0848    0.0000 H         1 <0>        0.00000
     42 H12        -1.6962   -0.3276    0.0000 H         1 <0>        0.00000
     43 H13         2.1148    2.8026    0.0000 H         1 <0>        0.00000
     44 H14         2.1148    2.8026    0.0000 H         1 <0>        0.00000
     45 H15         1.5314    2.2192    0.0000 H         1 <0>        0.00000
     46 H16         1.5314    2.2192    0.0000 H         1 <0>        0.00000
     47 H17         2.5419    1.2088    0.0000 H         1 <0>        0.00000
     48 H18         3.1252    1.7922    0.0000 H         1 <0>        0.00000
     49 H19         3.1252    1.7922    0.0000 H         1 <0>        0.00000
     50 H20         2.9117    2.5891    0.0000 H         1 <0>        0.00000
     51 H21         2.9117    2.5891    0.0000 H         1 <0>        0.00000
@<TRIPOS>BOND
     1    1    2 1
     2    1    5 1
     3    1    4 1
     4    1    6 1
     5    2    3 1
     6    3    4 1
     7    3   16 am
     8    6   27 1
     9    6   28 1
    10    7    8 ar
    11    7   10 ar
    12    7    9 1
    13    8   15 ar
    14    8   16 1
    15    9   23 1
    16   10   12 ar
    17   10   11 1
    18   12   13 1
    19   12   14 ar
    20   14   15 ar
    21   16   17 2
    22   18   19 ar
    23   18   20 ar
    24   19   23 ar
    25   19   24 1
    26   20   21 ar
    27   20   25 1
    28   21   22 ar
    29   22   23 ar
    30   26   27 1
    31   26   30 1
    32   28   29 1
    33   29   30 1
    34    2   31 1
    35    2   32 1
    36    4   33 1
    37    4   34 1
    38    5   35 1
    39    6   36 1
    40    9   37 1
    41   14   38 1
    42   15   39 1
    43   18   40 1
    44   21   41 1
    45   22   42 1
    46   26   43 1
    47   26   44 1
    48   27   45 1
    49   27   46 1
    50   28   47 1
    51   29   48 1
    52   29   49 1
    53   30   50 1
    54   30   51 1
@<TRIPOS>SUBSTRUCTURE
     1 <0>         1 GROUP 0 A     ****
@<TRIPOS>MOLECULE
059
   63    64     1     0     0
SMALL
NO_CHARGES

@<TRIPOS>ATOM
      1 C1         -3.6483   -1.6913    0.0000 C.ar      1 <0>        0.00000
      2 C2         -4.3265   -2.1611    0.0000 C.ar      1 <0>        0.00000
      3 C3         -5.0724   -1.8087    0.0000 C.ar      1 <0>        0.00000
      4 C4         -5.1402   -0.9865    0.0000 C.ar      1 <0>        0.00000
      5 C5         -4.4621   -0.5167    0.0000 C.ar      1 <0>        0.00000
      6 C6         -3.7161   -0.8691    0.0000 C.ar      1 <0>        0.00000
      7 C7         -3.0380   -0.3992    0.0000 C.3       1 <0>        0.00000
      8 C8         -2.2920   -0.7516    0.0000 C.3       1 <0>        0.00000
      9 S1         -1.6139   -0.2818    0.0000 S.o2      1 <0>        0.00000
     10 O1         -2.0837    0.3964    0.0000 O.2       1 <0>        0.00000
     11 O2         -1.1440   -0.9599    0.0000 O.2       1 <0>        0.00000
     12 N1         -0.9357    0.1881    0.0000 N.pl3     1 <0>        0.00000
     13 C9         -0.1898   -0.1643    0.0000 C.3       1 <0>        0.00000
     14 C10        -0.1219   -0.9865    0.0000 C.3       1 <0>        0.00000
     15 C11         0.6240   -1.3389    0.0000 C.3       1 <0>        0.00000
     16 C12        -0.8001   -1.4564    0.0000 C.3       1 <0>        0.00000
     17 P1          0.4884    0.3055    0.0000 P.3       1 <0>        0.00000
     18 O3          0.0185    0.9837    0.0000 O.3       1 <0>        0.00000
     19 O4          0.9582   -0.3726    0.0000 O.2       1 <0>        0.00000
     20 C13         1.1665    0.7754    0.0000 C.3       1 <0>        0.00000
     21 C14         1.9125    0.4230    0.0000 C.3       1 <0>        0.00000
     22 C15         1.9803   -0.3992    0.0000 C.2       1 <0>        0.00000
     23 O5          2.7263   -0.7516    0.0000 O.2       1 <0>        0.00000
     24 O6          1.3022   -0.8691    0.0000 O.3       1 <0>        0.00000
     25 C16         2.5906    0.8928    0.0000 C.ar      1 <0>        0.00000
     26 C17         3.3366    0.5404    0.0000 C.ar      1 <0>        0.00000
     27 C18         2.5228    1.7150    0.0000 C.ar      1 <0>        0.00000
     28 C19         3.2010    2.1849    0.0000 C.ar      1 <0>        0.00000
     29 C20         3.9469    1.8325    0.0000 C.ar      1 <0>        0.00000
     30 C21         4.0147    1.0103    0.0000 C.ar      1 <0>        0.00000
     31 C22         4.7607    0.6579    0.0000 C.3       1 <0>        0.00000
     32 N2          5.4388    1.1277    0.0000 N.3       1 <0>        0.00000
     33 H1         -0.2378    0.4176    0.0000 H         1 <0>        0.00000
     34 H2          1.8645    1.0049    0.0000 H         1 <0>        0.00000
     35 H3         -3.6483   -1.6913    0.0000 H         1 <0>        0.00000
     36 H4         -4.3265   -2.1611    0.0000 H         1 <0>        0.00000
     37 H5         -5.0724   -1.8087    0.0000 H         1 <0>        0.00000
     38 H6         -5.1402   -0.9865    0.0000 H         1 <0>        0.00000
     39 H7         -4.4621   -0.5167    0.0000 H         1 <0>        0.00000
     40 H8         -3.0380   -0.3992    0.0000 H         1 <0>        0.00000
     41 H9         -3.0380   -0.3992    0.0000 H         1 <0>        0.00000
     42 H10        -2.2920   -0.7516    0.0000 H         1 <0>        0.00000
     43 H11        -2.2920   -0.7516    0.0000 H         1 <0>        0.00000
     44 H12        -0.9357    0.1881    0.0000 H         1 <0>        0.00000
     45 H13        -0.1219   -0.9865    0.0000 H         1 <0>        0.00000
     46 H14         0.6240   -1.3389    0.0000 H         1 <0>        0.00000
     47 H15         0.6240   -1.3389    0.0000 H         1 <0>        0.00000
     48 H16         0.6240   -1.3389    0.0000 H         1 <0>        0.00000
     49 H17        -0.8001   -1.4564    0.0000 H         1 <0>        0.00000
     50 H18        -0.8001   -1.4564    0.0000 H         1 <0>        0.00000
     51 H19        -0.8001   -1.4564    0.0000 H         1 <0>        0.00000
     52 H20         0.0185    0.9837    0.0000 H         1 <0>        0.00000
     53 H21         1.1665    0.7754    0.0000 H         1 <0>        0.00000
     54 H22         1.1665    0.7754    0.0000 H         1 <0>        0.00000
     55 H23         1.3022   -0.8691    0.0000 H         1 <0>        0.00000
     56 H24         3.3366    0.5404    0.0000 H         1 <0>        0.00000
     57 H25         2.5228    1.7150    0.0000 H         1 <0>        0.00000
     58 H26         3.2010    2.1849    0.0000 H         1 <0>        0.00000
     59 H27         3.9469    1.8325    0.0000 H         1 <0>        0.00000
     60 H28         4.7607    0.6579    0.0000 H         1 <0>        0.00000
     61 H29         4.7607    0.6579    0.0000 H         1 <0>        0.00000
     62 H30         5.4388    1.1277    0.0000 H         1 <0>        0.00000
     63 H31         5.4388    1.1277    0.0000 H         1 <0>        0.00000
@<TRIPOS>BOND
     1    1    2 ar
     2    1    6 ar
     3    2    3 ar
     4    3    4 ar
     5    4    5 ar
     6    5    6 ar
     7    6    7 1
     8    7    8 1
     9    8    9 1
    10    9   12 1
    11    9   11 2
    12    9   10 2
    13   12   13 1
    14   13   17 1
    15   13   14 1
    16   13   33 1
    17   14   15 1
    18   14   16 1
    19   17   20 1
    20   17   19 2
    21   17   18 1
    22   20   21 1
    23   21   25 1
    24   21   22 1
    25   21   34 1
    26   22   23 2
    27   22   24 1
    28   25   27 ar
    29   25   26 ar
    30   26   30 ar
    31   27   28 ar
    32   28   29 ar
    33   29   30 ar
    34   30   31 1
    35   31   32 1
    36    1   35 1
    37    2   36 1
    38    3   37 1
    39    4   38 1
    40    5   39 1
    41    7   40 1
    42    7   41 1
    43    8   42 1
    44    8   43 1
    45   12   44 1
    46   14   45 1
    47   15   46 1
    48   15   47 1
    49   15   48 1
    50   16   49 1
    51   16   50 1
    52   16   51 1
    53   18   52 1
    54   20   53 1
    55   20   54 1
    56   24   55 1
    57   26   56 1
    58   27   57 1
    59   28   58 1
    60   29   59 1
    61   31   60 1
    62   31   61 1
    63   32   62 1
    64   32   63 1
@<TRIPOS>SUBSTRUCTURE
     1 <0>         1 GROUP 0 A     ****
@<TRIPOS>MOLECULE
MiniDrugBank_60
   23    23     1     0     0
SMALL
NO_CHARGES

@<TRIPOS>ATOM
      1 N1          1.4289    2.4750    0.0000 N.3       1 <0>        0.00000
      2 C1          2.1434    2.0625    0.0000 C.3       1 <0>        0.00000
      3 C2          2.1434    1.2375    0.0000 C.3       1 <0>        0.00000
      4 N2          1.4289    0.8250    0.0000 N.am      1 <0>        0.00000
      5 C3          1.4289    0.0000    0.0000 C.ar      1 <0>        0.00000
      6 C4          0.7145   -0.4125    0.0000 C.ar      1 <0>        0.00000
      7 I1          0.7145   -1.2375    0.0000 I         1 <0>        0.00000
      8 C5          0.0000    0.0000    0.0000 C.ar      1 <0>        0.00000
      9 O1         -0.7145   -0.4125    0.0000 O.2       1 <0>        0.00000
     10 N3          0.0000    0.8250    0.0000 N.am      1 <0>        0.00000
     11 C6          0.7145    1.2375    0.0000 C.ar      1 <0>        0.00000
     12 O2          0.7145    2.0625    0.0000 O.2       1 <0>        0.00000
     13 C7          2.8579    2.4750    0.0000 C.2       1 <0>        0.00000
     14 O3          2.8579    3.3000    0.0000 O.3       1 <0>        0.00000
     15 O4          3.5724    2.0625    0.0000 O.2       1 <0>        0.00000
     16 H1          1.4289    2.4750    0.0000 H         1 <0>        0.00000
     17 H2          1.4289    2.4750    0.0000 H         1 <0>        0.00000
     18 H3          2.1434    2.0625    0.0000 H         1 <0>        0.00000
     19 H4          2.1434    1.2375    0.0000 H         1 <0>        0.00000
     20 H5          2.1434    1.2375    0.0000 H         1 <0>        0.00000
     21 H6          1.4289    0.0000    0.0000 H         1 <0>        0.00000
     22 H7          0.0000    0.8250    0.0000 H         1 <0>        0.00000
     23 H8          2.8579    3.3000    0.0000 H         1 <0>        0.00000
@<TRIPOS>BOND
     1    1    2 1
     2    2    3 1
     3    3    4 1
     4    4    5 1
     5    5    6 2
     6    6    7 1
     7    6    8 1
     8    8    9 2
     9    8   10 am
    10   10   11 am
    11    4   11 am
    12   11   12 2
    13    2   13 1
    14   13   14 1
    15   13   15 2
    16    1   16 1
    17    1   17 1
    18    2   18 1
    19    3   19 1
    20    3   20 1
    21    5   21 1
    22   10   22 1
    23   14   23 1
@<TRIPOS>SUBSTRUCTURE
     1 <0>         1 GROUP 0 A     ****
@<TRIPOS>MOLECULE
136
   35    36     1     0     0
SMALL
NO_CHARGES

@<TRIPOS>ATOM
      1 C1          0.1196    2.3745    0.0000 C.ar      1 <0>        0.00000
      2 C2          0.8340    1.9620    0.0000 C.ar      1 <0>        0.00000
      3 Cl1         1.5485    2.3745    0.0000 Cl        1 <0>        0.00000
      4 C3          0.8340    1.1370    0.0000 C.ar      1 <0>        0.00000
      5 C4          0.1196    0.7245    0.0000 C.ar      1 <0>        0.00000
      6 C5         -0.5949    1.1370    0.0000 C.ar      1 <0>        0.00000
      7 C6         -0.5949    1.9620    0.0000 C.ar      1 <0>        0.00000
      8 C7          0.1196    3.1995    0.0000 C.2       1 <0>        0.00000
      9 N1         -0.5949    3.6120    0.0000 N.pl3     1 <0>        0.00000
     10 N2          0.8340    3.6120    0.0000 N.2       1 <0>        0.00000
     11 N3          0.1196   -0.1005    0.0000 N.am      1 <0>        0.00000
     12 C8          0.8340   -0.5130    0.0000 C.2       1 <0>        0.00000
     13 O1          1.5485   -0.1005    0.0000 O.2       1 <0>        0.00000
     14 C9          0.8340   -1.3380    0.0000 C.ar      1 <0>        0.00000
     15 C10         1.5485   -1.7505    0.0000 C.ar      1 <0>        0.00000
     16 C11         1.5485   -2.5755    0.0000 C.ar      1 <0>        0.00000
     17 C12         2.2630   -2.9880    0.0000 C.3       1 <0>        0.00000
     18 C13         0.8340   -2.9880    0.0000 C.ar      1 <0>        0.00000
     19 C14         0.1196   -2.5755    0.0000 C.ar      1 <0>        0.00000
     20 I1         -0.5949   -2.9880    0.0000 I         1 <0>        0.00000
     21 C15         0.1196   -1.7505    0.0000 C.ar      1 <0>        0.00000
     22 O2         -0.5949   -1.3380    0.0000 O.3       1 <0>        0.00000
     23 H1          0.8340    1.1370    0.0000 H         1 <0>        0.00000
     24 H2         -0.5949    1.1370    0.0000 H         1 <0>        0.00000
     25 H3         -0.5949    1.9620    0.0000 H         1 <0>        0.00000
     26 H4         -0.5949    3.6120    0.0000 H         1 <0>        0.00000
     27 H5         -0.5949    3.6120    0.0000 H         1 <0>        0.00000
     28 H6          0.8340    3.6120    0.0000 H         1 <0>        0.00000
     29 H7          0.1196   -0.1005    0.0000 H         1 <0>        0.00000
     30 H8          1.5485   -1.7505    0.0000 H         1 <0>        0.00000
     31 H9          2.2630   -2.9880    0.0000 H         1 <0>        0.00000
     32 H10         2.2630   -2.9880    0.0000 H         1 <0>        0.00000
     33 H11         2.2630   -2.9880    0.0000 H         1 <0>        0.00000
     34 H12         0.8340   -2.9880    0.0000 H         1 <0>        0.00000
     35 H13        -0.5949   -1.3380    0.0000 H         1 <0>        0.00000
@<TRIPOS>BOND
     1    1    2 ar
     2    1    7 ar
     3    1    8 1
     4    2    3 1
     5    2    4 ar
     6    4    5 ar
     7    5    6 ar
     8    5   11 1
     9    6    7 ar
    10    8    9 1
    11    8   10 2
    12   11   12 am
    13   12   13 2
    14   12   14 1
    15   14   15 ar
    16   14   21 ar
    17   15   16 ar
    18   16   17 1
    19   16   18 ar
    20   18   19 ar
    21   19   20 1
    22   19   21 ar
    23   21   22 1
    24    4   23 1
    25    6   24 1
    26    7   25 1
    27    9   26 1
    28    9   27 1
    29   10   28 1
    30   11   29 1
    31   15   30 1
    32   17   31 1
    33   17   32 1
    34   17   33 1
    35   18   34 1
    36   22   35 1
@<TRIPOS>SUBSTRUCTURE
     1 <0>         1 GROUP 0 A     ****
@<TRIPOS>MOLECULE
ID5
   38    40     1     0     0
SMALL
NO_CHARGES

@<TRIPOS>ATOM
      1 C1         -2.3222   -1.3904    0.0000 C.ar      1 <0>        0.00000
      2 C2         -0.6722   -1.3904    0.0000 C.ar      1 <0>        0.00000
      3 C3         -1.9097   -0.6760    0.0000 C.ar      1 <0>        0.00000
      4 C4         -1.9097   -2.1049    0.0000 C.ar      1 <0>        0.00000
      5 C5         -1.0847   -2.1049    0.0000 C.ar      1 <0>        0.00000
      6 C6         -1.0847   -0.6760    0.0000 C.ar      1 <0>        0.00000
      7 F1          4.8033    1.5780    0.0000 F         1 <0>        0.00000
      8 F2         -2.3222   -2.8194    0.0000 F         1 <0>        0.00000
      9 C7         -0.6722    0.0385    0.0000 C.2       1 <0>        0.00000
     10 C8          1.3903    0.7530    0.0000 C.ar      1 <0>        0.00000
     11 F3          3.3743   -0.8970    0.0000 F         1 <0>        0.00000
     12 O1         -2.3222    0.0385    0.0000 O.3       1 <0>        0.00000
     13 O2         -1.0847    0.7530    0.0000 O.2       1 <0>        0.00000
     14 C9          0.5653    0.7530    0.0000 C.3       1 <0>        0.00000
     15 C10        -3.1472    0.0385    0.0000 C.3       1 <0>        0.00000
     16 N1          1.8752    1.4204    0.0000 N.ar      1 <0>        0.00000
     17 S1          1.8752    0.0855    0.0000 S.3       1 <0>        0.00000
     18 F4          3.3743    2.4030    0.0000 F         1 <0>        0.00000
     19 C11         2.6599    0.3405    0.0000 C.ar      1 <0>        0.00000
     20 C12         4.0888    1.1655    0.0000 C.ar      1 <0>        0.00000
     21 C13         2.6599    1.1655    0.0000 C.ar      1 <0>        0.00000
     22 C14         3.3743   -0.0720    0.0000 C.ar      1 <0>        0.00000
     23 C15         4.0888    0.3405    0.0000 C.ar      1 <0>        0.00000
     24 C16         3.3743    1.5780    0.0000 C.ar      1 <0>        0.00000
     25 C17        -3.5597    0.7530    0.0000 C.2       1 <0>        0.00000
     26 O3         -4.3847    0.7530    0.0000 O.3       1 <0>        0.00000
     27 O4         -3.1472    1.4675    0.0000 O.2       1 <0>        0.00000
     28 N2          0.1528    0.0385    0.0000 N.am      1 <0>        0.00000
     29 H1         -2.3222   -1.3904    0.0000 H         1 <0>        0.00000
     30 H2         -0.6722   -1.3904    0.0000 H         1 <0>        0.00000
     31 H3         -1.0847   -2.1049    0.0000 H         1 <0>        0.00000
     32 H4          0.5653    0.7530    0.0000 H         1 <0>        0.00000
     33 H5          0.5653    0.7530    0.0000 H         1 <0>        0.00000
     34 H6         -3.1472    0.0385    0.0000 H         1 <0>        0.00000
     35 H7         -3.1472    0.0385    0.0000 H         1 <0>        0.00000
     36 H8          4.0888    0.3405    0.0000 H         1 <0>        0.00000
     37 H9         -4.3847    0.7530    0.0000 H         1 <0>        0.00000
     38 H10         0.1528    0.0385    0.0000 H         1 <0>        0.00000
@<TRIPOS>BOND
     1    1    3 ar
     2    1    4 ar
     3    2    5 ar
     4    2    6 ar
     5    3    6 ar
     6    3   12 1
     7    4    5 ar
     8    4    8 1
     9    6    9 1
    10    7   20 1
    11    9   13 2
    12    9   28 am
    13   10   14 1
    14   10   16 2
    15   10   17 1
    16   11   22 1
    17   12   15 1
    18   14   28 1
    19   15   25 1
    20   16   21 1
    21   17   19 1
    22   18   24 1
    23   19   21 ar
    24   19   22 ar
    25   20   23 ar
    26   20   24 ar
    27   21   24 ar
    28   22   23 ar
    29   25   26 1
    30   25   27 2
    31    1   29 1
    32    2   30 1
    33    5   31 1
    34   14   32 1
    35   14   33 1
    36   15   34 1
    37   15   35 1
    38   23   36 1
    39   26   37 1
    40   28   38 1
@<TRIPOS>SUBSTRUCTURE
     1 <0>         1 GROUP 0 A     ****
@<TRIPOS>MOLECULE
MiniDrugBank_63
   39    40     1     0     0
SMALL
NO_CHARGES

@<TRIPOS>ATOM
      1 C1         -0.9162    3.5328    0.0000 C.3       1 <0>        0.00000
      2 C2         -0.1410    3.8150    0.0000 C.ar      1 <0>        0.00000
      3 N1          0.0023    4.6274    0.0000 N.ar      1 <0>        0.00000
      4 C3          0.7775    4.9096    0.0000 C.ar      1 <0>        0.00000
      5 C4          1.4095    4.3793    0.0000 C.ar      1 <0>        0.00000
      6 C5          2.1848    4.6615    0.0000 C.3       1 <0>        0.00000
      7 O1          2.3280    5.4739    0.0000 O.3       1 <0>        0.00000
      8 P1          3.1033    5.7561    0.0000 P.3       1 <0>        0.00000
      9 O2          3.8785    6.0383    0.0000 O.3       1 <0>        0.00000
     10 O3          2.8211    6.5314    0.0000 O.3       1 <0>        0.00000
     11 O4          3.3854    4.9809    0.0000 O.2       1 <0>        0.00000
     12 C6          1.2663    3.5668    0.0000 C.ar      1 <0>        0.00000
     13 C7          1.8982    3.0365    0.0000 C.3       1 <0>        0.00000
     14 N2          2.6735    3.3187    0.0000 N.3       1 <0>        0.00000
     15 C8          3.3055    2.7884    0.0000 C.3       1 <0>        0.00000
     16 C9          3.7180    2.0739    0.0000 C.3       1 <0>        0.00000
     17 C10         2.8930    2.0739    0.0000 C.3       1 <0>        0.00000
     18 C11         3.9375    3.3187    0.0000 C.2       1 <0>        0.00000
     19 O5          4.7127    3.0365    0.0000 O.3       1 <0>        0.00000
     20 O6          3.7942    4.1312    0.0000 O.2       1 <0>        0.00000
     21 C12         0.4910    3.2847    0.0000 C.ar      1 <0>        0.00000
     22 O7          0.3477    2.4722    0.0000 O.3       1 <0>        0.00000
     23 H1         -0.9162    3.5328    0.0000 H         1 <0>        0.00000
     24 H2         -0.9162    3.5328    0.0000 H         1 <0>        0.00000
     25 H3         -0.9162    3.5328    0.0000 H         1 <0>        0.00000
     26 H4          0.7775    4.9096    0.0000 H         1 <0>        0.00000
     27 H5          2.1848    4.6615    0.0000 H         1 <0>        0.00000
     28 H6          2.1848    4.6615    0.0000 H         1 <0>        0.00000
     29 H7          3.8785    6.0383    0.0000 H         1 <0>        0.00000
     30 H8          2.8211    6.5314    0.0000 H         1 <0>        0.00000
     31 H9          1.8982    3.0365    0.0000 H         1 <0>        0.00000
     32 H10         1.8982    3.0365    0.0000 H         1 <0>        0.00000
     33 H11         2.6735    3.3187    0.0000 H         1 <0>        0.00000
     34 H12         3.7180    2.0739    0.0000 H         1 <0>        0.00000
     35 H13         3.7180    2.0739    0.0000 H         1 <0>        0.00000
     36 H14         2.8930    2.0739    0.0000 H         1 <0>        0.00000
     37 H15         2.8930    2.0739    0.0000 H         1 <0>        0.00000
     38 H16         4.7127    3.0365    0.0000 H         1 <0>        0.00000
     39 H17         0.3477    2.4722    0.0000 H         1 <0>        0.00000
@<TRIPOS>BOND
     1    1    2 1
     2    2    3 ar
     3    3    4 ar
     4    4    5 ar
     5    5    6 1
     6    6    7 1
     7    7    8 1
     8    8    9 1
     9    8   10 1
    10    8   11 2
    11    5   12 ar
    12   12   13 1
    13   13   14 1
    14   14   15 1
    15   15   16 1
    16   16   17 1
    17   15   17 1
    18   15   18 1
    19   18   19 1
    20   18   20 2
    21   12   21 ar
    22    2   21 ar
    23   21   22 1
    24    1   23 1
    25    1   24 1
    26    1   25 1
    27    4   26 1
    28    6   27 1
    29    6   28 1
    30    9   29 1
    31   10   30 1
    32   13   31 1
    33   13   32 1
    34   14   33 1
    35   16   34 1
    36   16   35 1
    37   17   36 1
    38   17   37 1
    39   19   38 1
    40   22   39 1
@<TRIPOS>SUBSTRUCTURE
     1 <0>         1 GROUP 0 A     ****
@<TRIPOS>MOLECULE
MiniDrugBank_64
   18    18     1     0     0
SMALL
NO_CHARGES

@<TRIPOS>ATOM
      1 C1         -0.7145   -0.4125    0.0000 C.3       1 <0>        0.00000
      2 C2          0.0000   -0.8250    0.0000 C.3       1 <0>        0.00000
      3 C3          0.7145   -0.4125    0.0000 C.3       1 <0>        0.00000
      4 C4         -0.7145    0.4125    0.0000 C.3       1 <0>        0.00000
      5 C5          0.7145    0.4125    0.0000 C.3       1 <0>        0.00000
      6 C6          0.0000    0.8250    0.0000 C.3       1 <0>        0.00000
      7 Cl1         1.4289   -0.8250    0.0000 Cl        1 <0>        0.00000
      8 Cl2         0.0000    1.6500    0.0000 Cl        1 <0>        0.00000
      9 Cl3        -1.4289   -0.8250    0.0000 Cl        1 <0>        0.00000
     10 Cl4         0.0000   -1.6500    0.0000 Cl        1 <0>        0.00000
     11 Cl5        -1.4289    0.8250    0.0000 Cl        1 <0>        0.00000
     12 Cl6         1.4289    0.8250    0.0000 Cl        1 <0>        0.00000
     13 H1         -0.7145   -0.4125    0.0000 H         1 <0>        0.00000
     14 H2          0.0000   -0.8250    0.0000 H         1 <0>        0.00000
     15 H3          0.7145   -0.4125    0.0000 H         1 <0>        0.00000
     16 H4         -0.7145    0.4125    0.0000 H         1 <0>        0.00000
     17 H5          0.7145    0.4125    0.0000 H         1 <0>        0.00000
     18 H6          0.0000    0.8250    0.0000 H         1 <0>        0.00000
@<TRIPOS>BOND
     1    1    2 1
     2    2    3 1
     3    1    4 1
     4    3    5 1
     5    4    6 1
     6    5    6 1
     7    3    7 1
     8    6    8 1
     9    1    9 1
    10    2   10 1
    11    4   11 1
    12    5   12 1
    13    1   13 1
    14    2   14 1
    15    3   15 1
    16    4   16 1
    17    5   17 1
    18    6   18 1
@<TRIPOS>SUBSTRUCTURE
     1 <0>         1 GROUP 0 A     ****
@<TRIPOS>MOLECULE
1A2
   52    55     1     0     0
SMALL
NO_CHARGES

@<TRIPOS>ATOM
      1 C1         -0.8874    1.5342    0.0000 C.3       1 <0>        0.00000
      2 C2         -1.5739   -0.8437    0.0000 C.2       1 <0>        0.00000
      3 N1         -0.7730   -0.6456    0.0000 N.2       1 <0>        0.00000
      4 C3         -3.2900    0.9397    0.0000 C.ar      1 <0>        0.00000
      5 C4         -2.9467   -0.4474    0.0000 C.ar      1 <0>        0.00000
      6 C5         -2.4891    1.1379    0.0000 C.ar      1 <0>        0.00000
      7 C6         -3.5188    0.1471    0.0000 C.ar      1 <0>        0.00000
      8 C7         -2.1459   -0.2492    0.0000 C.ar      1 <0>        0.00000
      9 C8         -0.5442    0.1471    0.0000 C.3       1 <0>        0.00000
     10 N2         -1.1162    0.7416    0.0000 N.pl3     1 <0>        0.00000
     11 C9         -1.9171    0.5434    0.0000 C.ar      1 <0>        0.00000
     12 F1         -3.1756   -1.2400    0.0000 F         1 <0>        0.00000
     13 F2         -2.2603    1.9305    0.0000 F         1 <0>        0.00000
     14 C10        -0.3154    0.9397    0.0000 C.3       1 <0>        0.00000
     15 C11         0.4855    1.1379    0.0000 C.3       1 <0>        0.00000
     16 N3          1.0575    0.5434    0.0000 N.am      1 <0>        0.00000
     17 C12         0.8287   -0.2492    0.0000 C.3       1 <0>        0.00000
     18 C13         0.0278   -0.4474    0.0000 C.3       1 <0>        0.00000
     19 C14         1.8584    0.7416    0.0000 C.2       1 <0>        0.00000
     20 O1          2.0872    1.5342    0.0000 O.2       1 <0>        0.00000
     21 N4         -1.8027   -1.6363    0.0000 N.pl3     1 <0>        0.00000
     22 C15         2.4304    0.1471    0.0000 C.2       1 <0>        0.00000
     23 C16         3.2312    0.3452    0.0000 C.2       1 <0>        0.00000
     24 N5          3.8033   -0.2492    0.0000 N.2       1 <0>        0.00000
     25 C17         3.5745   -1.0419    0.0000 C.2       1 <0>        0.00000
     26 C18         2.7736   -1.2400    0.0000 C.3       1 <0>        0.00000
     27 C19         2.2016   -0.6456    0.0000 C.3       1 <0>        0.00000
     28 C20         4.1465   -1.6363    0.0000 C.1       1 <0>        0.00000
     29 N6          4.7185   -2.2308    0.0000 N.1       1 <0>        0.00000
     30 C21        -1.4594    2.1287    0.0000 C.3       1 <0>        0.00000
     31 H1         -0.8874    1.5342    0.0000 H         1 <0>        0.00000
     32 H2         -0.8874    1.5342    0.0000 H         1 <0>        0.00000
     33 H3         -3.2900    0.9397    0.0000 H         1 <0>        0.00000
     34 H4         -3.5188    0.1471    0.0000 H         1 <0>        0.00000
     35 H5         -0.3154    0.9397    0.0000 H         1 <0>        0.00000
     36 H6         -0.3154    0.9397    0.0000 H         1 <0>        0.00000
     37 H7          0.4855    1.1379    0.0000 H         1 <0>        0.00000
     38 H8          0.4855    1.1379    0.0000 H         1 <0>        0.00000
     39 H9          0.8287   -0.2492    0.0000 H         1 <0>        0.00000
     40 H10         0.8287   -0.2492    0.0000 H         1 <0>        0.00000
     41 H11         0.0278   -0.4474    0.0000 H         1 <0>        0.00000
     42 H12         0.0278   -0.4474    0.0000 H         1 <0>        0.00000
     43 H13        -1.8027   -1.6363    0.0000 H         1 <0>        0.00000
     44 H14        -1.8027   -1.6363    0.0000 H         1 <0>        0.00000
     45 H15         3.2312    0.3452    0.0000 H         1 <0>        0.00000
     46 H16         2.7736   -1.2400    0.0000 H         1 <0>        0.00000
     47 H17         2.7736   -1.2400    0.0000 H         1 <0>        0.00000
     48 H18         2.2016   -0.6456    0.0000 H         1 <0>        0.00000
     49 H19         2.2016   -0.6456    0.0000 H         1 <0>        0.00000
     50 H20        -1.4594    2.1287    0.0000 H         1 <0>        0.00000
     51 H21        -1.4594    2.1287    0.0000 H         1 <0>        0.00000
     52 H22        -1.4594    2.1287    0.0000 H         1 <0>        0.00000
@<TRIPOS>BOND
     1    1   10 1
     2    1   30 1
     3    2    3 2
     4    2    8 1
     5    2   21 1
     6    3    9 1
     7    4    6 ar
     8    4    7 ar
     9    5    7 ar
    10    5    8 ar
    11    5   12 1
    12    6   11 ar
    13    6   13 1
    14    8   11 ar
    15    9   10 1
    16    9   14 1
    17    9   18 1
    18   10   11 1
    19   14   15 1
    20   15   16 1
    21   16   17 1
    22   16   19 am
    23   17   18 1
    24   19   20 2
    25   19   22 1
    26   22   23 2
    27   22   27 1
    28   23   24 1
    29   24   25 2
    30   25   26 1
    31   25   28 1
    32   26   27 1
    33   28   29 3
    34    1   31 1
    35    1   32 1
    36    4   33 1
    37    7   34 1
    38   14   35 1
    39   14   36 1
    40   15   37 1
    41   15   38 1
    42   17   39 1
    43   17   40 1
    44   18   41 1
    45   18   42 1
    46   21   43 1
    47   21   44 1
    48   23   45 1
    49   26   46 1
    50   26   47 1
    51   27   48 1
    52   27   49 1
    53   30   50 1
    54   30   51 1
    55   30   52 1
@<TRIPOS>SUBSTRUCTURE
     1 <0>         1 GROUP 0 A     ****
@<TRIPOS>MOLECULE
MiniDrugBank_66
   83    87     1     0     0
SMALL
NO_CHARGES

@<TRIPOS>ATOM
      1 P1         -3.1853    0.8125    0.0000 P.3       1 <0>        0.00000
      2 O1         -3.1853   -0.0161    0.0000 O.3       1 <0>        0.00000
      3 O2         -3.8955    1.2213    0.0000 O.3       1 <0>        0.00000
      4 O3         -3.1853    1.6411    0.0000 O.2       1 <0>        0.00000
      5 O4          0.3766    1.2213    0.0000 O.3       1 <0>        0.00000
      6 O5         -0.3336   -0.0161    0.0000 O.2       1 <0>        0.00000
      7 O6         -0.3336   -2.5019    0.0000 O.3       1 <0>        0.00000
      8 O7          0.4950   -1.1783    0.0000 O.2       1 <0>        0.00000
      9 N1         -1.7432    2.4697    0.0000 N.pl3     1 <0>        0.00000
     10 N2         -0.3336   -1.6733    0.0000 N.pl3     1 <0>        0.00000
     11 N3          2.5290    0.8554    0.0000 N.pl3     1 <0>        0.00000
     12 C1         -2.4859    1.2213    0.0000 C.2       1 <0>        0.00000
     13 C2         -1.7432    0.8125    0.0000 C.3       1 <0>        0.00000
     14 C3         -1.0330    1.2213    0.0000 C.2       1 <0>        0.00000
     15 C4         -2.4859    2.0501    0.0000 C.2       1 <0>        0.00000
     16 C5         -1.7432   -0.0161    0.0000 C.ar      1 <0>        0.00000
     17 C6         -1.0330    2.0501    0.0000 C.2       1 <0>        0.00000
     18 C7         -0.3336    0.8125    0.0000 C.2       1 <0>        0.00000
     19 C8         -4.6381   -0.0161    0.0000 C.3       1 <0>        0.00000
     20 C9         -1.0330   -0.4358    0.0000 C.ar      1 <0>        0.00000
     21 C10        -3.9279   -0.4358    0.0000 C.3       1 <0>        0.00000
     22 C11        -4.6381    0.8125    0.0000 C.3       1 <0>        0.00000
     23 C12        -2.4859   -0.4358    0.0000 C.ar      1 <0>        0.00000
     24 C13        -3.1853    2.4697    0.0000 C.3       1 <0>        0.00000
     25 C14        -1.0330   -1.2644    0.0000 C.ar      1 <0>        0.00000
     26 C15        -0.3336    2.5019    0.0000 C.3       1 <0>        0.00000
     27 C16        -2.4859   -1.2644    0.0000 C.ar      1 <0>        0.00000
     28 C17        -1.7432   -1.6733    0.0000 C.ar      1 <0>        0.00000
     29 C18        -5.3806   -0.4358    0.0000 C.3       1 <0>        0.00000
     30 C19        -5.3376    0.3927    0.0000 C.3       1 <0>        0.00000
     31 C20         1.1192    0.8125    0.0000 C.3       1 <0>        0.00000
     32 C21         1.8186    1.2644    0.0000 C.3       1 <0>        0.00000
     33 C22         2.5290    0.0268    0.0000 C.ar      1 <0>        0.00000
     34 C23         3.2715    1.2213    0.0000 C.3       1 <0>        0.00000
     35 C24         3.9710    0.8554    0.0000 C.ar      1 <0>        0.00000
     36 C25         3.2284   -0.3928    0.0000 C.ar      1 <0>        0.00000
     37 C26         1.8186   -0.3928    0.0000 C.ar      1 <0>        0.00000
     38 C27         4.6813    1.2213    0.0000 C.ar      1 <0>        0.00000
     39 C28         3.9710    0.0268    0.0000 C.ar      1 <0>        0.00000
     40 C29         3.2284   -1.2214    0.0000 C.ar      1 <0>        0.00000
     41 C30         1.8186   -1.2214    0.0000 C.ar      1 <0>        0.00000
     42 C31         2.5290   -1.6303    0.0000 C.ar      1 <0>        0.00000
     43 C32         5.3806    0.8125    0.0000 C.ar      1 <0>        0.00000
     44 C33         4.6813   -0.3928    0.0000 C.ar      1 <0>        0.00000
     45 C34         5.3806    0.0268    0.0000 C.ar      1 <0>        0.00000
     46 H1         -1.7432    2.4697    0.0000 H         1 <0>        0.00000
     47 H2         -1.7432    0.8125    0.0000 H         1 <0>        0.00000
     48 H3         -1.0330   -0.4358    0.0000 H         1 <0>        0.00000
     49 H4         -3.9279   -0.4358    0.0000 H         1 <0>        0.00000
     50 H5         -3.9279   -0.4358    0.0000 H         1 <0>        0.00000
     51 H6         -4.6381    0.8125    0.0000 H         1 <0>        0.00000
     52 H7         -4.6381    0.8125    0.0000 H         1 <0>        0.00000
     53 H8         -2.4859   -0.4358    0.0000 H         1 <0>        0.00000
     54 H9         -3.1853    2.4697    0.0000 H         1 <0>        0.00000
     55 H10        -3.1853    2.4697    0.0000 H         1 <0>        0.00000
     56 H11        -3.1853    2.4697    0.0000 H         1 <0>        0.00000
     57 H12        -0.3336    2.5019    0.0000 H         1 <0>        0.00000
     58 H13        -0.3336    2.5019    0.0000 H         1 <0>        0.00000
     59 H14        -0.3336    2.5019    0.0000 H         1 <0>        0.00000
     60 H15        -2.4859   -1.2644    0.0000 H         1 <0>        0.00000
     61 H16        -1.7432   -1.6733    0.0000 H         1 <0>        0.00000
     62 H17        -5.3806   -0.4358    0.0000 H         1 <0>        0.00000
     63 H18        -5.3806   -0.4358    0.0000 H         1 <0>        0.00000
     64 H19        -5.3806   -0.4358    0.0000 H         1 <0>        0.00000
     65 H20        -5.3376    0.3927    0.0000 H         1 <0>        0.00000
     66 H21        -5.3376    0.3927    0.0000 H         1 <0>        0.00000
     67 H22        -5.3376    0.3927    0.0000 H         1 <0>        0.00000
     68 H23         1.1192    0.8125    0.0000 H         1 <0>        0.00000
     69 H24         1.1192    0.8125    0.0000 H         1 <0>        0.00000
     70 H25         1.8186    1.2644    0.0000 H         1 <0>        0.00000
     71 H26         1.8186    1.2644    0.0000 H         1 <0>        0.00000
     72 H27         3.2715    1.2213    0.0000 H         1 <0>        0.00000
     73 H28         3.2715    1.2213    0.0000 H         1 <0>        0.00000
     74 H29         3.2284   -0.3928    0.0000 H         1 <0>        0.00000
     75 H30         1.8186   -0.3928    0.0000 H         1 <0>        0.00000
     76 H31         4.6813    1.2213    0.0000 H         1 <0>        0.00000
     77 H32         3.9710    0.0268    0.0000 H         1 <0>        0.00000
     78 H33         3.2284   -1.2214    0.0000 H         1 <0>        0.00000
     79 H34         1.8186   -1.2214    0.0000 H         1 <0>        0.00000
     80 H35         2.5290   -1.6303    0.0000 H         1 <0>        0.00000
     81 H36         5.3806    0.8125    0.0000 H         1 <0>        0.00000
     82 H37         4.6813   -0.3928    0.0000 H         1 <0>        0.00000
     83 H38         5.3806    0.0268    0.0000 H         1 <0>        0.00000
@<TRIPOS>BOND
     1    1    2 1
     2    1    3 1
     3    1    4 2
     4    1   12 1
     5    2   21 1
     6    3   22 1
     7    5   18 1
     8    5   31 1
     9    6   18 2
    10    7   10 1
    11    8   10 2
    12    9   15 1
    13    9   17 1
    14   10   25 1
    15   11   32 1
    16   11   33 1
    17   11   34 1
    18   12   13 1
    19   12   15 2
    20   13   14 1
    21   13   16 1
    22   14   17 2
    23   14   18 1
    24   15   24 1
    25   16   20 ar
    26   16   23 ar
    27   17   26 1
    28   19   21 1
    29   19   22 1
    30   19   29 1
    31   19   30 1
    32   20   25 ar
    33   23   27 ar
    34   25   28 ar
    35   27   28 ar
    36   31   32 1
    37   33   36 ar
    38   33   37 ar
    39   34   35 1
    40   35   38 ar
    41   35   39 ar
    42   36   40 ar
    43   37   41 ar
    44   38   43 ar
    45   39   44 ar
    46   40   42 ar
    47   41   42 ar
    48   43   45 ar
    49   44   45 ar
    50    9   46 1
    51   13   47 1
    52   20   48 1
    53   21   49 1
    54   21   50 1
    55   22   51 1
    56   22   52 1
    57   23   53 1
    58   24   54 1
    59   24   55 1
    60   24   56 1
    61   26   57 1
    62   26   58 1
    63   26   59 1
    64   27   60 1
    65   28   61 1
    66   29   62 1
    67   29   63 1
    68   29   64 1
    69   30   65 1
    70   30   66 1
    71   30   67 1
    72   31   68 1
    73   31   69 1
    74   32   70 1
    75   32   71 1
    76   34   72 1
    77   34   73 1
    78   36   74 1
    79   37   75 1
    80   38   76 1
    81   39   77 1
    82   40   78 1
    83   41   79 1
    84   42   80 1
    85   43   81 1
    86   44   82 1
    87   45   83 1
@<TRIPOS>SUBSTRUCTURE
     1 <0>         1 GROUP 0 A     ****
@<TRIPOS>MOLECULE
MiniDrugBank_67
   18    18     1     0     0
SMALL
NO_CHARGES

@<TRIPOS>ATOM
      1 O1          1.4290    1.4933    0.0000 O.2       1 <0>        0.00000
      2 N1         -1.4290   -0.9818    0.0000 N.pl3     1 <0>        0.00000
      3 N2          0.0000   -0.9818    0.0000 N.ar      1 <0>        0.00000
      4 N3          0.7145   -0.5692    0.0000 N.ar      1 <0>        0.00000
      5 N4         -2.1436   -0.5692    0.0000 N.3       1 <0>        0.00000
      6 N5          2.1436    0.2557    0.0000 N.am      1 <0>        0.00000
      7 C1         -0.7145   -0.5692    0.0000 C.ar      1 <0>        0.00000
      8 C2          0.7145    0.2557    0.0000 C.ar      1 <0>        0.00000
      9 C3         -0.7145    0.2557    0.0000 C.ar      1 <0>        0.00000
     10 C4          0.0000    0.6682    0.0000 C.ar      1 <0>        0.00000
     11 C5          1.4290    0.6682    0.0000 C.2       1 <0>        0.00000
     12 H1         -1.4290   -1.4933    0.0000 H         1 <0>        0.00000
     13 H2         -2.5865   -0.8251    0.0000 H         1 <0>        0.00000
     14 H3         -2.1436   -0.0577    0.0000 H         1 <0>        0.00000
     15 H4          2.5865    0.5115    0.0000 H         1 <0>        0.00000
     16 H5          2.1436   -0.2557    0.0000 H         1 <0>        0.00000
     17 H6         -0.7145    0.2557    0.0000 H         1 <0>        0.00000
     18 H7          0.0000    0.6682    0.0000 H         1 <0>        0.00000
@<TRIPOS>BOND
     1    1   11 2
     2    2    5 1
     3    2    7 1
     4    2   12 1
     5    3    4 ar
     6    3    7 ar
     7    4    8 ar
     8    5   13 1
     9    5   14 1
    10    6   11 am
    11    6   15 1
    12    6   16 1
    13    7    9 ar
    14    8   10 ar
    15    8   11 1
    16    9   10 ar
    17    9   17 1
    18   10   18 1
@<TRIPOS>SUBSTRUCTURE
     1 <0>         1 GROUP 0 A     ****
@<TRIPOS>MOLECULE
1CX
   36    37     1     0     0
SMALL
NO_CHARGES

@<TRIPOS>ATOM
      1 N1          0.7947    0.1249    0.0000 N.2       1 <0>        0.00000
      2 C1          0.0802    1.3624    0.0000 C.ar      1 <0>        0.00000
      3 C2          0.0802    2.1874    0.0000 C.ar      1 <0>        0.00000
      4 C3          0.7947    2.5999    0.0000 C.ar      1 <0>        0.00000
      5 C4          0.0802   -1.1126    0.0000 C.2       1 <0>        0.00000
      6 C5         -0.6343   -1.5251    0.0000 C.2       1 <0>        0.00000
      7 C6         -1.3487   -0.2876    0.0000 C.2       1 <0>        0.00000
      8 C7          0.7947   -1.5251    0.0000 C.2       1 <0>        0.00000
      9 C8          3.6526   -1.5251    0.0000 C.3       1 <0>        0.00000
     10 C9          1.5091    2.1874    0.0000 C.ar      1 <0>        0.00000
     11 C10         1.5091    1.3624    0.0000 C.ar      1 <0>        0.00000
     12 C11         0.7947    0.9499    0.0000 C.ar      1 <0>        0.00000
     13 I1          0.7947    3.4249    0.0000 I         1 <0>        0.00000
     14 C12        -1.3487   -1.1126    0.0000 C.2       1 <0>        0.00000
     15 C13        -0.6343    0.1249    0.0000 C.3       1 <0>        0.00000
     16 C14         0.0802   -0.2876    0.0000 C.2       1 <0>        0.00000
     17 F1         -2.0632    0.1249    0.0000 F         1 <0>        0.00000
     18 F2         -0.6343    0.9499    0.0000 F         1 <0>        0.00000
     19 F3          2.2236    0.9499    0.0000 F         1 <0>        0.00000
     20 O1          0.7947   -2.3501    0.0000 O.2       1 <0>        0.00000
     21 N2          1.5091   -1.1126    0.0000 N.am      1 <0>        0.00000
     22 O2          2.2236   -1.5251    0.0000 O.3       1 <0>        0.00000
     23 C15         2.9381   -1.1126    0.0000 C.3       1 <0>        0.00000
     24 O3          4.3670   -1.1126    0.0000 O.3       1 <0>        0.00000
     25 H1         -1.1400    0.4169    0.0000 H         1 <0>        0.00000
     26 H2          0.0802    1.3624    0.0000 H         1 <0>        0.00000
     27 H3          0.0802    2.1874    0.0000 H         1 <0>        0.00000
     28 H4         -0.6343   -1.5251    0.0000 H         1 <0>        0.00000
     29 H5          3.6526   -1.5251    0.0000 H         1 <0>        0.00000
     30 H6          3.6526   -1.5251    0.0000 H         1 <0>        0.00000
     31 H7          1.5091    2.1874    0.0000 H         1 <0>        0.00000
     32 H8         -1.3487   -1.1126    0.0000 H         1 <0>        0.00000
     33 H9          1.5091   -1.1126    0.0000 H         1 <0>        0.00000
     34 H10         2.9381   -1.1126    0.0000 H         1 <0>        0.00000
     35 H11         2.9381   -1.1126    0.0000 H         1 <0>        0.00000
     36 H12         4.3670   -1.1126    0.0000 H         1 <0>        0.00000
@<TRIPOS>BOND
     1    1   12 1
     2    1   16 2
     3    2    3 ar
     4    2   12 ar
     5    3    4 ar
     6    4   10 ar
     7    4   13 1
     8    5    6 2
     9    5    8 1
    10    5   16 1
    11    6   14 1
    12    7   14 2
    13    7   15 1
    14    7   17 1
    15    8   20 2
    16    8   21 am
    17    9   23 1
    18    9   24 1
    19   10   11 ar
    20   11   12 ar
    21   11   19 1
    22   15   16 1
    23   15   18 1
    24   15   25 1
    25   21   22 1
    26   22   23 1
    27    2   26 1
    28    3   27 1
    29    6   28 1
    30    9   29 1
    31    9   30 1
    32   10   31 1
    33   14   32 1
    34   21   33 1
    35   23   34 1
    36   23   35 1
    37   24   36 1
@<TRIPOS>SUBSTRUCTURE
     1 <0>         1 GROUP 0 A     ****
@<TRIPOS>MOLECULE
451
   35    36     1     0     0
SMALL
NO_CHARGES

@<TRIPOS>ATOM
      1 I1          4.9509    0.6683    0.0000 I         1 <0>        0.00000
      2 I2          2.0930    0.6683    0.0000 I         1 <0>        0.00000
      3 I3          6.3799    1.4933    0.0000 I         1 <0>        0.00000
      4 I4          4.9509    3.9683    0.0000 I         1 <0>        0.00000
      5 O1          3.5220    1.4933    0.0000 O.3       1 <0>        0.00000
      6 O2          2.0930   -3.4568    0.0000 O.3       1 <0>        0.00000
      7 O3          3.5220   -3.4568    0.0000 O.2       1 <0>        0.00000
      8 O4          6.3799    3.1433    0.0000 O.3       1 <0>        0.00000
      9 N1          2.0930   -1.8068    0.0000 N.3       1 <0>        0.00000
     10 C1          3.5220   -1.8068    0.0000 C.3       1 <0>        0.00000
     11 C2          2.8075   -2.2193    0.0000 C.3       1 <0>        0.00000
     12 C3          3.5220   -0.9818    0.0000 C.ar      1 <0>        0.00000
     13 C4          2.8075   -0.5693    0.0000 C.ar      1 <0>        0.00000
     14 C5          4.2365   -0.5693    0.0000 C.ar      1 <0>        0.00000
     15 C6          3.5220    0.6683    0.0000 C.ar      1 <0>        0.00000
     16 C7          4.2365    0.2558    0.0000 C.ar      1 <0>        0.00000
     17 C8          2.8075    0.2558    0.0000 C.ar      1 <0>        0.00000
     18 C9          2.8075   -3.0443    0.0000 C.2       1 <0>        0.00000
     19 C10         4.2365    1.9058    0.0000 C.ar      1 <0>        0.00000
     20 C11         4.2365    2.7308    0.0000 C.ar      1 <0>        0.00000
     21 C12         4.9509    1.4933    0.0000 C.ar      1 <0>        0.00000
     22 C13         5.6655    1.9058    0.0000 C.ar      1 <0>        0.00000
     23 C14         4.9509    3.1433    0.0000 C.ar      1 <0>        0.00000
     24 C15         5.6655    2.7308    0.0000 C.ar      1 <0>        0.00000
     25 H1          2.0930   -3.4568    0.0000 H         1 <0>        0.00000
     26 H2          6.3799    3.1433    0.0000 H         1 <0>        0.00000
     27 H3          2.0930   -1.8068    0.0000 H         1 <0>        0.00000
     28 H4          2.0930   -1.8068    0.0000 H         1 <0>        0.00000
     29 H5          3.5220   -1.8068    0.0000 H         1 <0>        0.00000
     30 H6          3.5220   -1.8068    0.0000 H         1 <0>        0.00000
     31 H7          2.8075   -2.2193    0.0000 H         1 <0>        0.00000
     32 H8          2.8075   -0.5693    0.0000 H         1 <0>        0.00000
     33 H9          4.2365   -0.5693    0.0000 H         1 <0>        0.00000
     34 H10         4.2365    2.7308    0.0000 H         1 <0>        0.00000
     35 H11         4.9509    1.4933    0.0000 H         1 <0>        0.00000
@<TRIPOS>BOND
     1    1   16 1
     2    2   17 1
     3    3   22 1
     4    4   23 1
     5    5   15 1
     6    5   19 1
     7    6   18 1
     8    7   18 2
     9    8   24 1
    10    9   11 1
    11   10   11 1
    12   10   12 1
    13   11   18 1
    14   12   13 ar
    15   12   14 ar
    16   13   17 ar
    17   14   16 ar
    18   15   16 ar
    19   15   17 ar
    20   19   20 ar
    21   19   21 ar
    22   20   23 ar
    23   21   22 ar
    24   22   24 ar
    25   23   24 ar
    26    6   25 1
    27    8   26 1
    28    9   27 1
    29    9   28 1
    30   10   29 1
    31   10   30 1
    32   11   31 1
    33   13   32 1
    34   14   33 1
    35   20   34 1
    36   21   35 1
@<TRIPOS>SUBSTRUCTURE
     1 <0>         1 GROUP 0 A     ****
@<TRIPOS>MOLECULE
MiniDrugBank_70
   48    51     1     0     0
SMALL
NO_CHARGES

@<TRIPOS>ATOM
      1 N1          0.0000   -2.4750    0.0000 N.3       1 <0>        0.00000
      2 C1          0.0000   -1.6500    0.0000 C.3       1 <0>        0.00000
      3 C2          0.7145   -1.2375    0.0000 C.ar      1 <0>        0.00000
      4 N2          0.7145   -0.4125    0.0000 N.ar      1 <0>        0.00000
      5 N3          1.4289    0.0000    0.0000 N.ar      1 <0>        0.00000
      6 C3          2.1434   -0.4125    0.0000 C.ar      1 <0>        0.00000
      7 C4          2.8579    0.0000    0.0000 C.ar      1 <0>        0.00000
      8 C5          3.5724   -0.4125    0.0000 C.ar      1 <0>        0.00000
      9 C6          3.5724   -1.2375    0.0000 C.ar      1 <0>        0.00000
     10 C7          2.8579   -1.6500    0.0000 C.ar      1 <0>        0.00000
     11 C8          2.1434   -1.2375    0.0000 C.ar      1 <0>        0.00000
     12 C9          1.4289   -1.6500    0.0000 C.ar      1 <0>        0.00000
     13 N4          1.4289   -2.4750    0.0000 N.2       1 <0>        0.00000
     14 C10         2.1434   -2.8875    0.0000 C.2       1 <0>        0.00000
     15 C11         2.1434   -3.7125    0.0000 C.2       1 <0>        0.00000
     16 C12         2.8579   -4.1250    0.0000 C.2       1 <0>        0.00000
     17 C13         2.8579   -4.9500    0.0000 C.ar      1 <0>        0.00000
     18 C14         3.5724   -5.3625    0.0000 C.ar      1 <0>        0.00000
     19 C15         3.5724   -6.1875    0.0000 C.ar      1 <0>        0.00000
     20 C16         2.8579   -6.6000    0.0000 C.ar      1 <0>        0.00000
     21 C17         2.1434   -6.1875    0.0000 C.ar      1 <0>        0.00000
     22 C18         2.1434   -5.3625    0.0000 C.ar      1 <0>        0.00000
     23 C19         3.5724   -3.7125    0.0000 C.ar      1 <0>        0.00000
     24 C20         3.5724   -2.8875    0.0000 C.ar      1 <0>        0.00000
     25 C21         4.2868   -2.4750    0.0000 C.ar      1 <0>        0.00000
     26 C22         5.0013   -2.8875    0.0000 C.ar      1 <0>        0.00000
     27 C23         5.0013   -3.7125    0.0000 C.ar      1 <0>        0.00000
     28 C24         4.2868   -4.1250    0.0000 C.ar      1 <0>        0.00000
     29 H1          0.0000   -2.4750    0.0000 H         1 <0>        0.00000
     30 H2          0.0000   -2.4750    0.0000 H         1 <0>        0.00000
     31 H3          0.0000   -1.6500    0.0000 H         1 <0>        0.00000
     32 H4          0.0000   -1.6500    0.0000 H         1 <0>        0.00000
     33 H5          2.8579    0.0000    0.0000 H         1 <0>        0.00000
     34 H6          3.5724   -0.4125    0.0000 H         1 <0>        0.00000
     35 H7          3.5724   -1.2375    0.0000 H         1 <0>        0.00000
     36 H8          2.8579   -1.6500    0.0000 H         1 <0>        0.00000
     37 H9          2.1434   -2.8875    0.0000 H         1 <0>        0.00000
     38 H10         2.1434   -3.7125    0.0000 H         1 <0>        0.00000
     39 H11         3.5724   -5.3625    0.0000 H         1 <0>        0.00000
     40 H12         3.5724   -6.1875    0.0000 H         1 <0>        0.00000
     41 H13         2.8579   -6.6000    0.0000 H         1 <0>        0.00000
     42 H14         2.1434   -6.1875    0.0000 H         1 <0>        0.00000
     43 H15         2.1434   -5.3625    0.0000 H         1 <0>        0.00000
     44 H16         3.5724   -2.8875    0.0000 H         1 <0>        0.00000
     45 H17         4.2868   -2.4750    0.0000 H         1 <0>        0.00000
     46 H18         5.0013   -2.8875    0.0000 H         1 <0>        0.00000
     47 H19         5.0013   -3.7125    0.0000 H         1 <0>        0.00000
     48 H20         4.2868   -4.1250    0.0000 H         1 <0>        0.00000
@<TRIPOS>BOND
     1    1    2 1
     2    2    3 1
     3    3    4 ar
     4    4    5 ar
     5    5    6 ar
     6    6    7 ar
     7    7    8 ar
     8    8    9 ar
     9    9   10 ar
    10   10   11 ar
    11    6   11 ar
    12   11   12 ar
    13    3   12 ar
    14   12   13 1
    15   13   14 2
    16   14   15 1
    17   15   16 2
    18   16   17 1
    19   17   18 ar
    20   18   19 ar
    21   19   20 ar
    22   20   21 ar
    23   21   22 ar
    24   17   22 ar
    25   16   23 1
    26   23   24 ar
    27   24   25 ar
    28   25   26 ar
    29   26   27 ar
    30   27   28 ar
    31   23   28 ar
    32    1   29 1
    33    1   30 1
    34    2   31 1
    35    2   32 1
    36    7   33 1
    37    8   34 1
    38    9   35 1
    39   10   36 1
    40   14   37 1
    41   15   38 1
    42   18   39 1
    43   19   40 1
    44   20   41 1
    45   21   42 1
    46   22   43 1
    47   24   44 1
    48   25   45 1
    49   26   46 1
    50   27   47 1
    51   28   48 1
@<TRIPOS>SUBSTRUCTURE
     1 <0>         1 GROUP 0 A     ****
@<TRIPOS>MOLECULE
MiniDrugBank_71
   51    55     1     0     0
SMALL
NO_CHARGES

@<TRIPOS>ATOM
      1 O1          4.6015    1.3511    0.0000 O.2       1 <0>        0.00000
      2 C1          3.8888    0.9367    0.0000 C.2       1 <0>        0.00000
      3 O2          3.8888    0.1122    0.0000 O.3       1 <0>        0.00000
      4 C2          3.1736    1.3468    0.0000 C.ar      1 <0>        0.00000
      5 C3          3.1736    2.1756    0.0000 C.ar      1 <0>        0.00000
      6 C4          2.4583    2.5857    0.0000 C.ar      1 <0>        0.00000
      7 C5          1.7431    2.1756    0.0000 C.ar      1 <0>        0.00000
      8 C6          1.7431    1.3468    0.0000 C.ar      1 <0>        0.00000
      9 C7          1.0278    0.9367    0.0000 C.ar      1 <0>        0.00000
     10 N1          0.3126    1.3553    0.0000 N.ar      1 <0>        0.00000
     11 C8         -0.4025    0.9367    0.0000 C.ar      1 <0>        0.00000
     12 N2         -1.1178    1.3468    0.0000 N.am      1 <0>        0.00000
     13 C9         -1.8306    0.9325    0.0000 C.2       1 <0>        0.00000
     14 C10        -2.5459    1.3426    0.0000 C.3       1 <0>        0.00000
     15 C11        -3.0737    0.7093    0.0000 C.ar      1 <0>        0.00000
     16 C12        -3.8905    0.8530    0.0000 C.ar      1 <0>        0.00000
     17 C13        -4.4188    0.2193    0.0000 C.ar      1 <0>        0.00000
     18 C14        -4.1394   -0.5564    0.0000 C.ar      1 <0>        0.00000
     19 O3         -4.5291   -1.2897    0.0000 O.3       1 <0>        0.00000
     20 C15        -3.9520   -1.8868    0.0000 C.3       1 <0>        0.00000
     21 F1         -3.5147   -2.5857    0.0000 F         1 <0>        0.00000
     22 F2         -4.6015   -2.3947    0.0000 F         1 <0>        0.00000
     23 O4         -3.2060   -1.5224    0.0000 O.3       1 <0>        0.00000
     24 C16        -3.3218   -0.7002    0.0000 C.ar      1 <0>        0.00000
     25 C17        -2.7853   -0.0680    0.0000 C.ar      1 <0>        0.00000
     26 C18        -3.0781    1.9722    0.0000 C.3       1 <0>        0.00000
     27 C19        -2.2653    2.1196    0.0000 C.3       1 <0>        0.00000
     28 O5         -1.8306    0.1080    0.0000 O.2       1 <0>        0.00000
     29 C20        -0.4025    0.1079    0.0000 C.ar      1 <0>        0.00000
     30 C21         0.3126   -0.3021    0.0000 C.ar      1 <0>        0.00000
     31 C22         1.0278    0.1079    0.0000 C.ar      1 <0>        0.00000
     32 C23         1.7412   -0.3053    0.0000 C.3       1 <0>        0.00000
     33 C24         2.4583    0.9282    0.0000 C.ar      1 <0>        0.00000
     34 H1          3.8888    0.1122    0.0000 H         1 <0>        0.00000
     35 H2          3.1736    2.1756    0.0000 H         1 <0>        0.00000
     36 H3          2.4583    2.5857    0.0000 H         1 <0>        0.00000
     37 H4          1.7431    2.1756    0.0000 H         1 <0>        0.00000
     38 H5         -1.1178    1.3468    0.0000 H         1 <0>        0.00000
     39 H6         -3.8905    0.8530    0.0000 H         1 <0>        0.00000
     40 H7         -4.4188    0.2193    0.0000 H         1 <0>        0.00000
     41 H8         -2.7853   -0.0680    0.0000 H         1 <0>        0.00000
     42 H9         -3.0781    1.9722    0.0000 H         1 <0>        0.00000
     43 H10        -3.0781    1.9722    0.0000 H         1 <0>        0.00000
     44 H11        -2.2653    2.1196    0.0000 H         1 <0>        0.00000
     45 H12        -2.2653    2.1196    0.0000 H         1 <0>        0.00000
     46 H13        -0.4025    0.1079    0.0000 H         1 <0>        0.00000
     47 H14         0.3126   -0.3021    0.0000 H         1 <0>        0.00000
     48 H15         1.7412   -0.3053    0.0000 H         1 <0>        0.00000
     49 H16         1.7412   -0.3053    0.0000 H         1 <0>        0.00000
     50 H17         1.7412   -0.3053    0.0000 H         1 <0>        0.00000
     51 H18         2.4583    0.9282    0.0000 H         1 <0>        0.00000
@<TRIPOS>BOND
     1    1    2 2
     2    2    3 1
     3    2    4 1
     4    4    5 ar
     5    4   33 ar
     6    5    6 ar
     7    6    7 ar
     8    7    8 ar
     9    8    9 1
    10    8   33 ar
    11    9   10 ar
    12    9   31 ar
    13   10   11 ar
    14   11   12 1
    15   11   29 ar
    16   12   13 am
    17   13   14 1
    18   13   28 2
    19   14   15 1
    20   14   26 1
    21   14   27 1
    22   15   16 ar
    23   15   25 ar
    24   16   17 ar
    25   17   18 ar
    26   18   19 1
    27   18   24 ar
    28   19   20 1
    29   20   21 1
    30   20   22 1
    31   20   23 1
    32   23   24 1
    33   24   25 ar
    34   26   27 1
    35   29   30 ar
    36   30   31 ar
    37   31   32 1
    38    3   34 1
    39    5   35 1
    40    6   36 1
    41    7   37 1
    42   12   38 1
    43   16   39 1
    44   17   40 1
    45   25   41 1
    46   26   42 1
    47   26   43 1
    48   27   44 1
    49   27   45 1
    50   29   46 1
    51   30   47 1
    52   32   48 1
    53   32   49 1
    54   32   50 1
    55   33   51 1
@<TRIPOS>SUBSTRUCTURE
     1 <0>         1 GROUP 0 A     ****
@<TRIPOS>MOLECULE
MiniDrugBank_72
   31    32     1     0     0
SMALL
NO_CHARGES

@<TRIPOS>ATOM
      1 N1          1.9109   -0.2767    0.0000 N.pl3     1 <0>        0.00000
      2 C1          1.4944   -0.9890    0.0000 C.3       1 <0>        0.00000
      3 C2          1.9029   -1.7058    0.0000 C.3       1 <0>        0.00000
      4 O1          2.7282   -1.7104    0.0000 O.3       1 <0>        0.00000
      5 C3          3.1446   -0.9981    0.0000 C.3       1 <0>        0.00000
      6 C4          2.7361   -0.2812    0.0000 C.3       1 <0>        0.00000
      7 N2          1.5024    0.4398    0.0000 N.ar      1 <0>        0.00000
      8 N3          1.7592    1.2238    0.0000 N.ar      1 <0>        0.00000
      9 O2          1.0900    1.7104    0.0000 O.3       1 <0>        0.00000
     10 C5          0.4210    1.2238    0.0000 C.ar      1 <0>        0.00000
     11 C6          0.6776    0.4398    0.0000 C.ar      1 <0>        0.00000
     12 N4         -0.2928    1.6395    0.0000 N.2       1 <0>        0.00000
     13 C7         -1.0052    1.2272    0.0000 C.2       1 <0>        0.00000
     14 O3         -1.7175    1.6395    0.0000 O.3       1 <0>        0.00000
     15 C8         -2.4299    1.2272    0.0000 C.3       1 <0>        0.00000
     16 O4         -1.0052    0.4023    0.0000 O.2       1 <0>        0.00000
     17 C9         -3.1446    1.6388    0.0000 C.3       1 <0>        0.00000
     18 H1          1.4944   -0.9890    0.0000 H         1 <0>        0.00000
     19 H2          1.4944   -0.9890    0.0000 H         1 <0>        0.00000
     20 H3          1.9029   -1.7058    0.0000 H         1 <0>        0.00000
     21 H4          1.9029   -1.7058    0.0000 H         1 <0>        0.00000
     22 H5          3.1446   -0.9981    0.0000 H         1 <0>        0.00000
     23 H6          3.1446   -0.9981    0.0000 H         1 <0>        0.00000
     24 H7          2.7361   -0.2812    0.0000 H         1 <0>        0.00000
     25 H8          2.7361   -0.2812    0.0000 H         1 <0>        0.00000
     26 H9          0.6776    0.4398    0.0000 H         1 <0>        0.00000
     27 H10        -2.4299    1.2272    0.0000 H         1 <0>        0.00000
     28 H11        -2.4299    1.2272    0.0000 H         1 <0>        0.00000
     29 H12        -3.1446    1.6388    0.0000 H         1 <0>        0.00000
     30 H13        -3.1446    1.6388    0.0000 H         1 <0>        0.00000
     31 H14        -3.1446    1.6388    0.0000 H         1 <0>        0.00000
@<TRIPOS>BOND
     1    3    4 1
     2    4    5 1
     3    7    8 2
     4    8    9 1
     5    9   10 1
     6   10   11 2
     7    7   11 1
     8    5    6 1
     9   10   12 1
    10    1    6 1
    11   12   13 1
    12   13   14 1
    13    1    7 1
    14   14   15 1
    15    1    2 1
    16   13   16 2
    17    2    3 1
    18   15   17 1
    19    2   18 1
    20    2   19 1
    21    3   20 1
    22    3   21 1
    23    5   22 1
    24    5   23 1
    25    6   24 1
    26    6   25 1
    27   11   26 1
    28   15   27 1
    29   15   28 1
    30   17   29 1
    31   17   30 1
    32   17   31 1
@<TRIPOS>SUBSTRUCTURE
     1 <0>         1 GROUP 0 A     ****
@<TRIPOS>MOLECULE
MiniDrugBank_73
   19    18     1     0     0
SMALL
NO_CHARGES

@<TRIPOS>ATOM
      1 S1         -1.6204    0.7145    0.0000 S.3       1 <0>        0.00000
      2 C1         -0.9059    1.1270    0.0000 C.2       1 <0>        0.00000
      3 C2         -0.1914    0.7145    0.0000 C.2       1 <0>        0.00000
      4 C3          0.5230    1.1270    0.0000 C.3       1 <0>        0.00000
      5 S2          1.2375    0.7145    0.0000 S.o       1 <0>        0.00000
      6 O1          1.2375   -0.1105    0.0000 O.2       1 <0>        0.00000
      7 C4          1.9520    1.1270    0.0000 C.3       1 <0>        0.00000
      8 C5          2.6664    0.7145    0.0000 C.2       1 <0>        0.00000
      9 C6          3.3809    1.1270    0.0000 C.2       1 <0>        0.00000
     10 H1         -1.6204    0.7145    0.0000 H         1 <0>        0.00000
     11 H2         -0.9059    1.1270    0.0000 H         1 <0>        0.00000
     12 H3         -0.1914    0.7145    0.0000 H         1 <0>        0.00000
     13 H4          0.5230    1.1270    0.0000 H         1 <0>        0.00000
     14 H5          0.5230    1.1270    0.0000 H         1 <0>        0.00000
     15 H6          1.9520    1.1270    0.0000 H         1 <0>        0.00000
     16 H7          1.9520    1.1270    0.0000 H         1 <0>        0.00000
     17 H8          2.6664    0.7145    0.0000 H         1 <0>        0.00000
     18 H9          3.3809    1.1270    0.0000 H         1 <0>        0.00000
     19 H10         3.3809    1.1270    0.0000 H         1 <0>        0.00000
@<TRIPOS>BOND
     1    1    2 1
     2    2    3 2
     3    3    4 1
     4    4    5 1
     5    5    6 2
     6    5    7 1
     7    7    8 1
     8    8    9 2
     9    1   10 1
    10    2   11 1
    11    3   12 1
    12    4   13 1
    13    4   14 1
    14    7   15 1
    15    7   16 1
    16    8   17 1
    17    9   18 1
    18    9   19 1
@<TRIPOS>SUBSTRUCTURE
     1 <0>         1 GROUP 0 A     ****
@<TRIPOS>MOLECULE
24I
   37    37     1     0     0
SMALL
NO_CHARGES

@<TRIPOS>ATOM
      1 O1         -2.6687    0.8781    0.0000 O.2       1 <0>        0.00000
      2 C1         -2.0451    0.3380    0.0000 C.2       1 <0>        0.00000
      3 O2         -2.2010   -0.4722    0.0000 O.3       1 <0>        0.00000
      4 C2         -1.2655    0.6080    0.0000 C.3       1 <0>        0.00000
      5 C3         -0.6419    0.0679    0.0000 C.3       1 <0>        0.00000
      6 C4          0.1376    0.3380    0.0000 C.3       1 <0>        0.00000
      7 C5          0.2936    1.1481    0.0000 C.2       1 <0>        0.00000
      8 O3          1.0731    1.4182    0.0000 O.3       1 <0>        0.00000
      9 O4         -0.3301    1.6882    0.0000 O.2       1 <0>        0.00000
     10 C6          0.7613   -0.2021    0.0000 C.3       1 <0>        0.00000
     11 P1          1.5408    0.0679    0.0000 P.3       1 <0>        0.00000
     12 O5          1.8109   -0.7116    0.0000 O.2       1 <0>        0.00000
     13 O6          1.2708    0.8475    0.0000 O.3       1 <0>        0.00000
     14 C7          2.3204    0.3380    0.0000 C.3       1 <0>        0.00000
     15 C8          2.9440   -0.2021    0.0000 C.ar      1 <0>        0.00000
     16 C9          3.7236    0.0679    0.0000 C.ar      1 <0>        0.00000
     17 C10         4.3472   -0.4722    0.0000 C.ar      1 <0>        0.00000
     18 C11         2.7881   -1.0122    0.0000 C.ar      1 <0>        0.00000
     19 C12         3.4118   -1.5523    0.0000 C.ar      1 <0>        0.00000
     20 C13         4.1913   -1.2823    0.0000 C.ar      1 <0>        0.00000
     21 I1          4.8150   -1.8224    0.0000 I         1 <0>        0.00000
     22 H1         -0.3038    0.7202    0.0000 H         1 <0>        0.00000
     23 H2         -2.2010   -0.4722    0.0000 H         1 <0>        0.00000
     24 H3         -1.2655    0.6080    0.0000 H         1 <0>        0.00000
     25 H4         -1.2655    0.6080    0.0000 H         1 <0>        0.00000
     26 H5         -0.6419    0.0679    0.0000 H         1 <0>        0.00000
     27 H6         -0.6419    0.0679    0.0000 H         1 <0>        0.00000
     28 H7          1.0731    1.4182    0.0000 H         1 <0>        0.00000
     29 H8          0.7613   -0.2021    0.0000 H         1 <0>        0.00000
     30 H9          0.7613   -0.2021    0.0000 H         1 <0>        0.00000
     31 H10         1.2708    0.8475    0.0000 H         1 <0>        0.00000
     32 H11         2.3204    0.3380    0.0000 H         1 <0>        0.00000
     33 H12         2.3204    0.3380    0.0000 H         1 <0>        0.00000
     34 H13         3.7236    0.0679    0.0000 H         1 <0>        0.00000
     35 H14         4.3472   -0.4722    0.0000 H         1 <0>        0.00000
     36 H15         2.7881   -1.0122    0.0000 H         1 <0>        0.00000
     37 H16         3.4118   -1.5523    0.0000 H         1 <0>        0.00000
@<TRIPOS>BOND
     1    1    2 2
     2    2    3 1
     3    2    4 1
     4    4    5 1
     5    5    6 1
     6    6    7 1
     7    6   10 1
     8    6   22 1
     9    7    8 1
    10    7    9 2
    11   10   11 1
    12   11   12 2
    13   11   13 1
    14   11   14 1
    15   14   15 1
    16   15   16 ar
    17   15   18 ar
    18   16   17 ar
    19   17   20 ar
    20   18   19 ar
    21   19   20 ar
    22   20   21 1
    23    3   23 1
    24    4   24 1
    25    4   25 1
    26    5   26 1
    27    5   27 1
    28    8   28 1
    29   10   29 1
    30   10   30 1
    31   13   31 1
    32   14   32 1
    33   14   33 1
    34   16   34 1
    35   17   35 1
    36   18   36 1
    37   19   37 1
@<TRIPOS>SUBSTRUCTURE
     1 <0>         1 GROUP 0 A     ****
@<TRIPOS>MOLECULE
MiniDrugBank_75
   64    65     1     0     0
SMALL
NO_CHARGES

@<TRIPOS>ATOM
      1 C1         -2.1430    1.4463    0.0000 C.2       1 <0>        0.00000
      2 O1         -2.8571    1.8597    0.0000 O.2       1 <0>        0.00000
      3 C2         -2.1436    0.6255    0.0000 C.ar      1 <0>        0.00000
      4 C3         -1.4269    0.2129    0.0000 C.ar      1 <0>        0.00000
      5 C4         -1.4269   -0.6120    0.0000 C.ar      1 <0>        0.00000
      6 C5         -2.1432   -1.0245    0.0000 C.ar      1 <0>        0.00000
      7 C6         -2.8553   -0.6120    0.0000 C.ar      1 <0>        0.00000
      8 C7         -2.8553    0.2129    0.0000 C.ar      1 <0>        0.00000
      9 I1         -2.1442   -1.8496    0.0000 I         1 <0>        0.00000
     10 I2         -3.5701    0.6249    0.0000 I         1 <0>        0.00000
     11 I3         -0.7126    0.6258    0.0000 I         1 <0>        0.00000
     12 C8         -3.5701   -1.0241    0.0000 C.2       1 <0>        0.00000
     13 N1         -4.2813   -0.6079    0.0000 N.am      1 <0>        0.00000
     14 C9         -4.9939   -1.0205    0.0000 C.3       1 <0>        0.00000
     15 O2         -3.5728   -1.8491    0.0000 O.2       1 <0>        0.00000
     16 N2         -0.7144   -1.0245    0.0000 N.am      1 <0>        0.00000
     17 C10        -0.0019   -0.6162    0.0000 C.2       1 <0>        0.00000
     18 C11         0.7106   -1.0288    0.0000 C.3       1 <0>        0.00000
     19 O3         -1.4281    1.8581    0.0000 O.3       1 <0>        0.00000
     20 C12        -5.7089   -0.6088    0.0000 C.3       1 <0>        0.00000
     21 O4         -6.4229   -1.0222    0.0000 O.3       1 <0>        0.00000
     22 O5         -0.0001    0.2087    0.0000 O.2       1 <0>        0.00000
     23 N3          1.4255   -0.6171    0.0000 N.am      1 <0>        0.00000
     24 C13         2.1395   -1.0304    0.0000 C.2       1 <0>        0.00000
     25 C14         2.8546   -0.6188    0.0000 C.ar      1 <0>        0.00000
     26 C15         3.5651   -1.0328    0.0000 C.ar      1 <0>        0.00000
     27 C16         4.2800   -0.6212    0.0000 C.ar      1 <0>        0.00000
     28 C17         4.2810    0.2037    0.0000 C.ar      1 <0>        0.00000
     29 C18         3.5669    0.6171    0.0000 C.ar      1 <0>        0.00000
     30 C19         2.8932    0.2054    0.0000 C.ar      1 <0>        0.00000
     31 N4          4.9940   -1.0347    0.0000 N.am      1 <0>        0.00000
     32 C20         4.9930   -1.8597    0.0000 C.3       1 <0>        0.00000
     33 C21         5.7090   -0.6229    0.0000 C.2       1 <0>        0.00000
     34 C22         6.4229   -1.0364    0.0000 C.3       1 <0>        0.00000
     35 O6          5.7100    0.2021    0.0000 O.2       1 <0>        0.00000
     36 C23         3.5679    1.4422    0.0000 C.2       1 <0>        0.00000
     37 O7          4.2830    1.8538    0.0000 O.2       1 <0>        0.00000
     38 N5          2.8539    1.8555    0.0000 N.am      1 <0>        0.00000
     39 C24         2.1389    1.4440    0.0000 C.3       1 <0>        0.00000
     40 O8          2.1385   -1.8555    0.0000 O.2       1 <0>        0.00000
     41 I4          3.5629   -1.8579    0.0000 I         1 <0>        0.00000
     42 I5          4.9960    0.6153    0.0000 I         1 <0>        0.00000
     43 I6          2.1370    0.6172    0.0000 I         1 <0>        0.00000
     44 H1         -4.2813   -0.6079    0.0000 H         1 <0>        0.00000
     45 H2         -4.9939   -1.0205    0.0000 H         1 <0>        0.00000
     46 H3         -4.9939   -1.0205    0.0000 H         1 <0>        0.00000
     47 H4         -0.7144   -1.0245    0.0000 H         1 <0>        0.00000
     48 H5          0.7106   -1.0288    0.0000 H         1 <0>        0.00000
     49 H6          0.7106   -1.0288    0.0000 H         1 <0>        0.00000
     50 H7         -1.4281    1.8581    0.0000 H         1 <0>        0.00000
     51 H8         -5.7089   -0.6088    0.0000 H         1 <0>        0.00000
     52 H9         -5.7089   -0.6088    0.0000 H         1 <0>        0.00000
     53 H10        -6.4229   -1.0222    0.0000 H         1 <0>        0.00000
     54 H11         1.4255   -0.6171    0.0000 H         1 <0>        0.00000
     55 H12         4.9930   -1.8597    0.0000 H         1 <0>        0.00000
     56 H13         4.9930   -1.8597    0.0000 H         1 <0>        0.00000
     57 H14         4.9930   -1.8597    0.0000 H         1 <0>        0.00000
     58 H15         6.4229   -1.0364    0.0000 H         1 <0>        0.00000
     59 H16         6.4229   -1.0364    0.0000 H         1 <0>        0.00000
     60 H17         6.4229   -1.0364    0.0000 H         1 <0>        0.00000
     61 H18         2.8539    1.8555    0.0000 H         1 <0>        0.00000
     62 H19         2.1389    1.4440    0.0000 H         1 <0>        0.00000
     63 H20         2.1389    1.4440    0.0000 H         1 <0>        0.00000
     64 H21         2.1389    1.4440    0.0000 H         1 <0>        0.00000
@<TRIPOS>BOND
     1    5    6 ar
     2   17   22 2
     3    4   11 1
     4   18   23 1
     5    5   16 1
     6   23   24 am
     7    6    7 ar
     8   24   25 1
     9   16   17 am
    10    7   12 1
    11   17   18 1
    12    7    8 ar
    13   12   13 am
    14   25   26 ar
    15   26   27 ar
    16   27   28 ar
    17   28   29 ar
    18   29   30 ar
    19   25   30 ar
    20    3    8 ar
    21   27   31 1
    22   13   14 1
    23   31   32 1
    24    3    4 ar
    25   31   33 am
    26    6    9 1
    27   33   34 1
    28    4    5 ar
    29   33   35 2
    30   12   15 2
    31   29   36 1
    32    8   10 1
    33   36   37 2
    34   36   38 am
    35    1   19 1
    36   38   39 1
    37    1    3 1
    38   24   40 2
    39   14   20 1
    40   26   41 1
    41    1    2 2
    42   28   42 1
    43   20   21 1
    44   30   43 1
    45   13   44 1
    46   14   45 1
    47   14   46 1
    48   16   47 1
    49   18   48 1
    50   18   49 1
    51   19   50 1
    52   20   51 1
    53   20   52 1
    54   21   53 1
    55   23   54 1
    56   32   55 1
    57   32   56 1
    58   32   57 1
    59   34   58 1
    60   34   59 1
    61   34   60 1
    62   38   61 1
    63   39   62 1
    64   39   63 1
    65   39   64 1
@<TRIPOS>SUBSTRUCTURE
     1 <0>         1 GROUP 0 A     ****
@<TRIPOS>MOLECULE
MiniDrugBank_76
   32    32     1     0     0
SMALL
NO_CHARGES

@<TRIPOS>ATOM
      1 C1          2.5006   -2.4750    0.0000 C.3       1 <0>        0.00000
      2 C2          1.0717   -2.4750    0.0000 C.3       1 <0>        0.00000
      3 C3         -0.3572    1.6500    0.0000 C.3       1 <0>        0.00000
      4 C4         -1.0717    1.2375    0.0000 C.3       1 <0>        0.00000
      5 C5          1.7861    1.2375    0.0000 C.ar      1 <0>        0.00000
      6 C6          1.7861   -1.2375    0.0000 C.2       1 <0>        0.00000
      7 C7          0.3572    1.2375    0.0000 C.ar      1 <0>        0.00000
      8 C8          1.0717    1.6500    0.0000 C.ar      1 <0>        0.00000
      9 C9          1.7861    0.4125    0.0000 C.ar      1 <0>        0.00000
     10 C10        -1.7861    1.6500    0.0000 C.2       1 <0>        0.00000
     11 C11         0.3572    0.4125    0.0000 C.ar      1 <0>        0.00000
     12 C12         1.0717    0.0000    0.0000 C.ar      1 <0>        0.00000
     13 I1          1.0717    2.4750    0.0000 I         1 <0>        0.00000
     14 I2          2.5006    0.0000    0.0000 I         1 <0>        0.00000
     15 I3         -0.3572    0.0000    0.0000 I         1 <0>        0.00000
     16 N1          1.0717   -0.8250    0.0000 N.2       1 <0>        0.00000
     17 N2          1.7861   -2.0625    0.0000 N.pl3     1 <0>        0.00000
     18 O1         -2.5006    1.2375    0.0000 O.2       1 <0>        0.00000
     19 O2         -1.7861    2.4750    0.0000 O.3       1 <0>        0.00000
     20 H1          2.5006   -2.4750    0.0000 H         1 <0>        0.00000
     21 H2          2.5006   -2.4750    0.0000 H         1 <0>        0.00000
     22 H3          2.5006   -2.4750    0.0000 H         1 <0>        0.00000
     23 H4          1.0717   -2.4750    0.0000 H         1 <0>        0.00000
     24 H5          1.0717   -2.4750    0.0000 H         1 <0>        0.00000
     25 H6          1.0717   -2.4750    0.0000 H         1 <0>        0.00000
     26 H7         -0.3572    1.6500    0.0000 H         1 <0>        0.00000
     27 H8         -0.3572    1.6500    0.0000 H         1 <0>        0.00000
     28 H9         -1.0717    1.2375    0.0000 H         1 <0>        0.00000
     29 H10        -1.0717    1.2375    0.0000 H         1 <0>        0.00000
     30 H11         1.7861    1.2375    0.0000 H         1 <0>        0.00000
     31 H12         1.7861   -1.2375    0.0000 H         1 <0>        0.00000
     32 H13        -1.7861    2.4750    0.0000 H         1 <0>        0.00000
@<TRIPOS>BOND
     1    3    4 1
     2    3    7 1
     3    5    8 ar
     4    7    8 ar
     5    5    9 ar
     6    4   10 1
     7    7   11 ar
     8    9   12 ar
     9   11   12 ar
    10    8   13 1
    11    9   14 1
    12   11   15 1
    13    6   16 2
    14   12   16 1
    15    1   17 1
    16    2   17 1
    17    6   17 1
    18   10   18 2
    19   10   19 1
    20    1   20 1
    21    1   21 1
    22    1   22 1
    23    2   23 1
    24    2   24 1
    25    2   25 1
    26    3   26 1
    27    3   27 1
    28    4   28 1
    29    4   29 1
    30    5   30 1
    31    6   31 1
    32   19   32 1
@<TRIPOS>SUBSTRUCTURE
     1 <0>         1 GROUP 0 A     ****
@<TRIPOS>MOLECULE
495
   32    33     1     0     0
SMALL
NO_CHARGES

@<TRIPOS>ATOM
      1 O1          4.8558   -1.0026    0.0000 O.3       1 <0>        0.00000
      2 O2          5.9063   -2.3685    0.0000 O.3       1 <0>        0.00000
      3 O3          2.7595    0.3073    0.0000 O.2       1 <0>        0.00000
      4 O4          4.1884    2.7823    0.0000 O.2       1 <0>        0.00000
      5 N1          4.1884    0.3073    0.0000 N.am      1 <0>        0.00000
      6 N2          3.2909   -2.4547    0.0000 N.2       1 <0>        0.00000
      7 N3          3.4739    1.5448    0.0000 N.am      1 <0>        0.00000
      8 N4          2.4705   -2.3685    0.0000 N.1       1 <0>        0.00000
      9 N5          1.6500   -2.2822    0.0000 N.1       1 <0>        0.00000
     10 C1          3.7759   -1.7873    0.0000 C.3       1 <0>        0.00000
     11 C2          4.1884   -0.5177    0.0000 C.3       1 <0>        0.00000
     12 C3          3.5210   -1.0026    0.0000 C.3       1 <0>        0.00000
     13 C4          4.6009   -1.7873    0.0000 C.3       1 <0>        0.00000
     14 C5          5.0858   -2.4547    0.0000 C.3       1 <0>        0.00000
     15 C6          4.9029    0.7198    0.0000 C.ar      1 <0>        0.00000
     16 C7          3.4739    0.7198    0.0000 C.ar      1 <0>        0.00000
     17 C8          4.9029    1.5448    0.0000 C.ar      1 <0>        0.00000
     18 C9          4.1884    1.9573    0.0000 C.ar      1 <0>        0.00000
     19 C10         5.6174    1.9573    0.0000 C.3       1 <0>        0.00000
     20 H1          5.9063   -2.3685    0.0000 H         1 <0>        0.00000
     21 H2          3.4739    1.5448    0.0000 H         1 <0>        0.00000
     22 H3          3.7759   -1.7873    0.0000 H         1 <0>        0.00000
     23 H4          4.1884   -0.5177    0.0000 H         1 <0>        0.00000
     24 H5          3.5210   -1.0026    0.0000 H         1 <0>        0.00000
     25 H6          3.5210   -1.0026    0.0000 H         1 <0>        0.00000
     26 H7          4.6009   -1.7873    0.0000 H         1 <0>        0.00000
     27 H8          5.0858   -2.4547    0.0000 H         1 <0>        0.00000
     28 H9          5.0858   -2.4547    0.0000 H         1 <0>        0.00000
     29 H10         4.9029    0.7198    0.0000 H         1 <0>        0.00000
     30 H11         5.6174    1.9573    0.0000 H         1 <0>        0.00000
     31 H12         5.6174    1.9573    0.0000 H         1 <0>        0.00000
     32 H13         5.6174    1.9573    0.0000 H         1 <0>        0.00000
@<TRIPOS>BOND
     1    1   11 1
     2    1   13 1
     3    2   14 1
     4    3   16 2
     5    4   18 2
     6    5   11 1
     7    5   15 1
     8    5   16 am
     9    6    8 2
    10    6   10 1
    11    7   16 am
    12    7   18 am
    13    8    9 2
    14   10   12 1
    15   10   13 1
    16   11   12 1
    17   13   14 1
    18   15   17 2
    19   17   18 1
    20   17   19 1
    21    2   20 1
    22    7   21 1
    23   10   22 1
    24   11   23 1
    25   12   24 1
    26   12   25 1
    27   13   26 1
    28   14   27 1
    29   14   28 1
    30   15   29 1
    31   19   30 1
    32   19   31 1
    33   19   32 1
@<TRIPOS>SUBSTRUCTURE
     1 <0>         1 GROUP 0 A     ****
@<TRIPOS>MOLECULE
MiniDrugBank_78
   40    40     1     0     0
SMALL
NO_CHARGES

@<TRIPOS>ATOM
      1 C1         -1.0661   -0.0072    0.0000 C.ar      1 <0>        0.00000
      2 C2          0.3618   -0.0314    0.0000 C.ar      1 <0>        0.00000
      3 C3         -0.3521   -0.4221    0.0000 C.ar      1 <0>        0.00000
      4 C4         -1.0661    0.8129    0.0000 C.ar      1 <0>        0.00000
      5 C5          0.3618    0.7839    0.0000 C.ar      1 <0>        0.00000
      6 C6         -1.7897   -0.4221    0.0000 C.3       1 <0>        0.00000
      7 C7         -0.3280    1.2181    0.0000 C.ar      1 <0>        0.00000
      8 N1          1.0661   -0.4462    0.0000 N.am      1 <0>        0.00000
      9 C8         -3.2225   -0.3932    0.0000 C.2       1 <0>        0.00000
     10 C9          1.7946   -0.0314    0.0000 C.2       1 <0>        0.00000
     11 C10        -2.4893    0.0024    0.0000 C.3       1 <0>        0.00000
     12 O1         -3.9415    0.0169    0.0000 O.3       1 <0>        0.00000
     13 O2         -3.2225   -1.2181    0.0000 O.2       1 <0>        0.00000
     14 O3          1.7752    0.7308    0.0000 O.2       1 <0>        0.00000
     15 I1         -0.3618   -1.2471    0.0000 I         1 <0>        0.00000
     16 I2         -1.7657    1.2278    0.0000 I         1 <0>        0.00000
     17 I3          1.0903    1.1939    0.0000 I         1 <0>        0.00000
     18 C11         2.5086   -0.4511    0.0000 C.3       1 <0>        0.00000
     19 C12        -2.4893    0.8225    0.0000 C.3       1 <0>        0.00000
     20 C13         3.2225   -0.0409    0.0000 C.3       1 <0>        0.00000
     21 C14        -3.2178    1.2471    0.0000 C.3       1 <0>        0.00000
     22 C15         3.9415   -0.4800    0.0000 C.3       1 <0>        0.00000
     23 H1         -1.7897   -0.4221    0.0000 H         1 <0>        0.00000
     24 H2         -1.7897   -0.4221    0.0000 H         1 <0>        0.00000
     25 H3         -0.3280    1.2181    0.0000 H         1 <0>        0.00000
     26 H4          1.0661   -0.4462    0.0000 H         1 <0>        0.00000
     27 H5         -2.4893    0.0024    0.0000 H         1 <0>        0.00000
     28 H6         -3.9415    0.0169    0.0000 H         1 <0>        0.00000
     29 H7          2.5086   -0.4511    0.0000 H         1 <0>        0.00000
     30 H8          2.5086   -0.4511    0.0000 H         1 <0>        0.00000
     31 H9         -2.4893    0.8225    0.0000 H         1 <0>        0.00000
     32 H10        -2.4893    0.8225    0.0000 H         1 <0>        0.00000
     33 H11         3.2225   -0.0409    0.0000 H         1 <0>        0.00000
     34 H12         3.2225   -0.0409    0.0000 H         1 <0>        0.00000
     35 H13        -3.2178    1.2471    0.0000 H         1 <0>        0.00000
     36 H14        -3.2178    1.2471    0.0000 H         1 <0>        0.00000
     37 H15        -3.2178    1.2471    0.0000 H         1 <0>        0.00000
     38 H16         3.9415   -0.4800    0.0000 H         1 <0>        0.00000
     39 H17         3.9415   -0.4800    0.0000 H         1 <0>        0.00000
     40 H18         3.9415   -0.4800    0.0000 H         1 <0>        0.00000
@<TRIPOS>BOND
     1    2    3 ar
     2    1    3 ar
     3    1    4 ar
     4    5    7 ar
     5    1    6 1
     6    4    7 ar
     7    2    8 1
     8    9   11 1
     9    8   10 am
    10    6   11 1
    11    9   12 1
    12    9   13 2
    13   10   14 2
    14    3   15 1
    15    4   16 1
    16    5   17 1
    17   10   18 1
    18   11   19 1
    19   18   20 1
    20   19   21 1
    21   20   22 1
    22    2    5 ar
    23    6   23 1
    24    6   24 1
    25    7   25 1
    26    8   26 1
    27   11   27 1
    28   12   28 1
    29   18   29 1
    30   18   30 1
    31   19   31 1
    32   19   32 1
    33   20   33 1
    34   20   34 1
    35   21   35 1
    36   21   36 1
    37   21   37 1
    38   22   38 1
    39   22   39 1
    40   22   40 1
@<TRIPOS>SUBSTRUCTURE
     1 <0>         1 GROUP 0 A     ****
@<TRIPOS>MOLECULE
292
   39    42     1     0     0
SMALL
NO_CHARGES

@<TRIPOS>ATOM
      1 C1         -3.7546    1.5699    0.0000 C.3       1 <0>        0.00000
      2 C2         -3.0009    1.9055    0.0000 C.3       1 <0>        0.00000
      3 C3         -3.0871    1.0850    0.0000 C.3       1 <0>        0.00000
      4 C4         -2.7516    0.3313    0.0000 C.ar      1 <0>        0.00000
      5 C5         -1.9446    0.1598    0.0000 C.ar      1 <0>        0.00000
      6 C6         -1.8584   -0.6607    0.0000 C.ar      1 <0>        0.00000
      7 N1         -2.6120   -0.9962    0.0000 N.pl3     1 <0>        0.00000
      8 N2         -3.1641   -0.3831    0.0000 N.ar      1 <0>        0.00000
      9 N3         -1.1439   -1.0732    0.0000 N.am      1 <0>        0.00000
     10 C7         -0.4294   -0.6607    0.0000 C.2       1 <0>        0.00000
     11 C8          0.2851   -1.0732    0.0000 C.3       1 <0>        0.00000
     12 C9          0.9995   -0.6607    0.0000 C.ar      1 <0>        0.00000
     13 C10         1.7140   -1.0732    0.0000 C.ar      1 <0>        0.00000
     14 C11         2.4285   -0.6607    0.0000 C.ar      1 <0>        0.00000
     15 C12         2.4285    0.1643    0.0000 C.ar      1 <0>        0.00000
     16 C13         1.7140    0.5768    0.0000 C.ar      1 <0>        0.00000
     17 C14         0.9995    0.1643    0.0000 C.ar      1 <0>        0.00000
     18 C15         3.1429    0.5768    0.0000 C.ar      1 <0>        0.00000
     19 C16         3.1429   -1.0732    0.0000 C.ar      1 <0>        0.00000
     20 C17         3.8574   -0.6607    0.0000 C.ar      1 <0>        0.00000
     21 C18         3.8574    0.1643    0.0000 C.ar      1 <0>        0.00000
     22 O1         -0.4294    0.1643    0.0000 O.2       1 <0>        0.00000
     23 H1         -3.7546    1.5699    0.0000 H         1 <0>        0.00000
     24 H2         -3.7546    1.5699    0.0000 H         1 <0>        0.00000
     25 H3         -3.0009    1.9055    0.0000 H         1 <0>        0.00000
     26 H4         -3.0009    1.9055    0.0000 H         1 <0>        0.00000
     27 H5         -3.0871    1.0850    0.0000 H         1 <0>        0.00000
     28 H6         -1.9446    0.1598    0.0000 H         1 <0>        0.00000
     29 H7         -2.6120   -0.9962    0.0000 H         1 <0>        0.00000
     30 H8         -1.1439   -1.0732    0.0000 H         1 <0>        0.00000
     31 H9          0.2851   -1.0732    0.0000 H         1 <0>        0.00000
     32 H10         0.2851   -1.0732    0.0000 H         1 <0>        0.00000
     33 H11         1.7140   -1.0732    0.0000 H         1 <0>        0.00000
     34 H12         1.7140    0.5768    0.0000 H         1 <0>        0.00000
     35 H13         0.9995    0.1643    0.0000 H         1 <0>        0.00000
     36 H14         3.1429    0.5768    0.0000 H         1 <0>        0.00000
     37 H15         3.1429   -1.0732    0.0000 H         1 <0>        0.00000
     38 H16         3.8574   -0.6607    0.0000 H         1 <0>        0.00000
     39 H17         3.8574    0.1643    0.0000 H         1 <0>        0.00000
@<TRIPOS>BOND
     1    1    2 1
     2    1    3 1
     3    2    3 1
     4    3    4 1
     5    4    5 1
     6    4    8 2
     7    5    6 2
     8    6    7 1
     9    6    9 1
    10    7    8 1
    11    9   10 am
    12   10   11 1
    13   10   22 2
    14   11   12 1
    15   12   13 ar
    16   12   17 ar
    17   13   14 ar
    18   14   15 ar
    19   14   19 ar
    20   15   16 ar
    21   15   18 ar
    22   16   17 ar
    23   18   21 ar
    24   19   20 ar
    25   20   21 ar
    26    1   23 1
    27    1   24 1
    28    2   25 1
    29    2   26 1
    30    3   27 1
    31    5   28 1
    32    7   29 1
    33    9   30 1
    34   11   31 1
    35   11   32 1
    36   13   33 1
    37   16   34 1
    38   17   35 1
    39   18   36 1
    40   19   37 1
    41   20   38 1
    42   21   39 1
@<TRIPOS>SUBSTRUCTURE
     1 <0>         1 GROUP 0 A     ****
@<TRIPOS>MOLECULE
MiniDrugBank_80
   47    49     1     0     0
SMALL
NO_CHARGES

@<TRIPOS>ATOM
      1 N1         -3.2056    4.3648    0.0000 N.pl3     1 <0>        0.00000
      2 C1         -2.3986    4.5363    0.0000 C.ar      1 <0>        0.00000
      3 N2         -2.1437    5.3209    0.0000 N.ar      1 <0>        0.00000
      4 C2         -1.3367    5.4924    0.0000 C.ar      1 <0>        0.00000
      5 N3         -0.7847    4.8794    0.0000 N.ar      1 <0>        0.00000
      6 C3         -1.0396    4.0947    0.0000 C.ar      1 <0>        0.00000
      7 C4         -1.8466    3.9232    0.0000 C.ar      1 <0>        0.00000
      8 N4         -1.9328    3.1027    0.0000 N.ar      1 <0>        0.00000
      9 C5         -1.1791    2.7672    0.0000 C.ar      1 <0>        0.00000
     10 N5         -0.6271    3.3803    0.0000 N.pl3     1 <0>        0.00000
     11 C6          0.1934    3.2940    0.0000 C.3       1 <0>        0.00000
     12 O1          0.7454    3.9071    0.0000 O.3       1 <0>        0.00000
     13 C7          1.4991    3.5716    0.0000 C.3       1 <0>        0.00000
     14 C8          2.2136    3.9841    0.0000 C.3       1 <0>        0.00000
     15 O2          2.9280    3.5716    0.0000 O.3       1 <0>        0.00000
     16 P1          3.6425    3.9841    0.0000 P.3       1 <0>        0.00000
     17 O3          4.0550    3.2696    0.0000 O.3       1 <0>        0.00000
     18 O4          3.2300    4.6985    0.0000 O.2       1 <0>        0.00000
     19 O5          4.3570    4.3966    0.0000 O.3       1 <0>        0.00000
     20 P2          5.0714    3.9841    0.0000 P.3       1 <0>        0.00000
     21 O6          4.6589    3.2696    0.0000 O.3       1 <0>        0.00000
     22 O7          5.4839    4.6985    0.0000 O.2       1 <0>        0.00000
     23 O8          5.7859    3.5716    0.0000 O.3       1 <0>        0.00000
     24 P3          6.5004    3.9841    0.0000 P.3       1 <0>        0.00000
     25 O9          7.2149    4.3966    0.0000 O.3       1 <0>        0.00000
     26 O10         6.9129    3.2696    0.0000 O.3       1 <0>        0.00000
     27 S1          6.0879    4.6985    0.0000 S.2       1 <0>        0.00000
     28 C9          1.4129    2.7511    0.0000 C.3       1 <0>        0.00000
     29 O11         2.0260    2.1990    0.0000 O.3       1 <0>        0.00000
     30 C10         0.6059    2.5796    0.0000 C.3       1 <0>        0.00000
     31 O12         0.2703    1.8259    0.0000 O.3       1 <0>        0.00000
     32 H1         -3.2056    4.3648    0.0000 H         1 <0>        0.00000
     33 H2         -3.2056    4.3648    0.0000 H         1 <0>        0.00000
     34 H3         -1.3367    5.4924    0.0000 H         1 <0>        0.00000
     35 H4         -1.1791    2.7672    0.0000 H         1 <0>        0.00000
     36 H5          0.1934    3.2940    0.0000 H         1 <0>        0.00000
     37 H6          1.4991    3.5716    0.0000 H         1 <0>        0.00000
     38 H7          2.2136    3.9841    0.0000 H         1 <0>        0.00000
     39 H8          2.2136    3.9841    0.0000 H         1 <0>        0.00000
     40 H9          4.0550    3.2696    0.0000 H         1 <0>        0.00000
     41 H10         4.6589    3.2696    0.0000 H         1 <0>        0.00000
     42 H11         7.2149    4.3966    0.0000 H         1 <0>        0.00000
     43 H12         6.9129    3.2696    0.0000 H         1 <0>        0.00000
     44 H13         1.4129    2.7511    0.0000 H         1 <0>        0.00000
     45 H14         2.0260    2.1990    0.0000 H         1 <0>        0.00000
     46 H15         0.6059    2.5796    0.0000 H         1 <0>        0.00000
     47 H16         0.2703    1.8259    0.0000 H         1 <0>        0.00000
@<TRIPOS>BOND
     1    1    2 1
     2    2    3 ar
     3    3    4 ar
     4    4    5 ar
     5    5    6 ar
     6    6    7 ar
     7    2    7 ar
     8    7    8 1
     9    8    9 2
    10    9   10 1
    11    6   10 1
    12   10   11 1
    13   11   12 1
    14   12   13 1
    15   13   14 1
    16   14   15 1
    17   15   16 1
    18   16   17 1
    19   16   18 2
    20   16   19 1
    21   19   20 1
    22   20   21 1
    23   20   22 2
    24   20   23 1
    25   23   24 1
    26   24   25 1
    27   24   26 1
    28   24   27 2
    29   13   28 1
    30   28   29 1
    31   28   30 1
    32   11   30 1
    33   30   31 1
    34    1   32 1
    35    1   33 1
    36    4   34 1
    37    9   35 1
    38   11   36 1
    39   13   37 1
    40   14   38 1
    41   14   39 1
    42   17   40 1
    43   21   41 1
    44   25   42 1
    45   26   43 1
    46   28   44 1
    47   29   45 1
    48   30   46 1
    49   31   47 1
@<TRIPOS>SUBSTRUCTURE
     1 <0>         1 GROUP 0 A     ****
@<TRIPOS>MOLECULE
MiniDrugBank_81
   32    32     1     0     0
SMALL
NO_CHARGES

@<TRIPOS>ATOM
      1 C1          0.0000    0.6187    0.0000 C.ar      1 <0>        0.00000
      2 C2          0.7145    0.2062    0.0000 C.ar      1 <0>        0.00000
      3 C3          0.7145   -0.6187    0.0000 C.ar      1 <0>        0.00000
      4 C4          0.0000   -1.0312    0.0000 C.ar      1 <0>        0.00000
      5 C5         -0.7145   -0.6187    0.0000 C.ar      1 <0>        0.00000
      6 C6         -0.7145    0.2062    0.0000 C.ar      1 <0>        0.00000
      7 N1         -1.4289   -1.0312    0.0000 N.am      1 <0>        0.00000
      8 I1         -1.4289    0.6187    0.0000 I         1 <0>        0.00000
      9 I2          0.0000   -1.8562    0.0000 I         1 <0>        0.00000
     10 C7         -2.1434   -0.6187    0.0000 C.2       1 <0>        0.00000
     11 C8          0.0000    1.4437    0.0000 C.2       1 <0>        0.00000
     12 N2          1.4289   -1.0312    0.0000 N.am      1 <0>        0.00000
     13 C9         -2.8579   -1.0312    0.0000 C.3       1 <0>        0.00000
     14 O1         -2.1434    0.2062    0.0000 O.2       1 <0>        0.00000
     15 I3          1.4289    0.6187    0.0000 I         1 <0>        0.00000
     16 O2          0.7145    1.8562    0.0000 O.3       1 <0>        0.00000
     17 O3         -0.7145    1.8562    0.0000 O.2       1 <0>        0.00000
     18 C10         2.1434   -0.6187    0.0000 C.2       1 <0>        0.00000
     19 O4          2.1434    0.2062    0.0000 O.2       1 <0>        0.00000
     20 C11         2.8579   -1.0312    0.0000 C.3       1 <0>        0.00000
     21 C12        -1.4289   -1.8562    0.0000 C.3       1 <0>        0.00000
     22 H1          1.4289   -1.0312    0.0000 H         1 <0>        0.00000
     23 H2         -2.8579   -1.0312    0.0000 H         1 <0>        0.00000
     24 H3         -2.8579   -1.0312    0.0000 H         1 <0>        0.00000
     25 H4         -2.8579   -1.0312    0.0000 H         1 <0>        0.00000
     26 H5          0.7145    1.8562    0.0000 H         1 <0>        0.00000
     27 H6          2.8579   -1.0312    0.0000 H         1 <0>        0.00000
     28 H7          2.8579   -1.0312    0.0000 H         1 <0>        0.00000
     29 H8          2.8579   -1.0312    0.0000 H         1 <0>        0.00000
     30 H9         -1.4289   -1.8562    0.0000 H         1 <0>        0.00000
     31 H10        -1.4289   -1.8562    0.0000 H         1 <0>        0.00000
     32 H11        -1.4289   -1.8562    0.0000 H         1 <0>        0.00000
@<TRIPOS>BOND
     1    3   12 1
     2    2    3 ar
     3    2   15 1
     4    5    7 1
     5    5    6 ar
     6    6    8 1
     7    4    5 ar
     8    3    4 ar
     9    4    9 1
    10    1    6 ar
    11    1    2 ar
    12    1   11 1
    13    7   10 am
    14   10   13 1
    15   10   14 2
    16   11   16 1
    17   11   17 2
    18   12   18 am
    19   18   19 2
    20   18   20 1
    21    7   21 1
    22   12   22 1
    23   13   23 1
    24   13   24 1
    25   13   25 1
    26   16   26 1
    27   20   27 1
    28   20   28 1
    29   20   29 1
    30   21   30 1
    31   21   31 1
    32   21   32 1
@<TRIPOS>SUBSTRUCTURE
     1 <0>         1 GROUP 0 A     ****
@<TRIPOS>MOLECULE
MiniDrugBank_82
   22    22     1     0     0
SMALL
NO_CHARGES

@<TRIPOS>ATOM
      1 C1         -0.3705    0.7982    0.0000 C.ar      1 <0>        0.00000
      2 C2          0.3398    0.3934    0.0000 C.ar      1 <0>        0.00000
      3 C3          0.3246   -0.4315    0.0000 C.ar      1 <0>        0.00000
      4 C4         -1.0834    0.3729    0.0000 C.ar      1 <0>        0.00000
      5 C5         -0.3705   -0.8745    0.0000 C.ar      1 <0>        0.00000
      6 C6         -1.0834   -0.4544    0.0000 C.ar      1 <0>        0.00000
      7 C7         -0.3705    1.6231    0.0000 C.2       1 <0>        0.00000
      8 N1          1.1088   -0.8185    0.0000 N.am      1 <0>        0.00000
      9 C8          1.1088   -1.5976    0.0000 C.2       1 <0>        0.00000
     10 O1         -1.0834    2.0280    0.0000 O.2       1 <0>        0.00000
     11 I1          1.0706    0.7982    0.0000 I         1 <0>        0.00000
     12 O2          0.3934   -2.0280    0.0000 O.2       1 <0>        0.00000
     13 I2         -1.8370    0.7982    0.0000 I         1 <0>        0.00000
     14 I3         -0.3705   -1.6995    0.0000 I         1 <0>        0.00000
     15 O3          0.3398    2.0280    0.0000 O.3       1 <0>        0.00000
     16 C9          1.8370   -1.9720    0.0000 C.3       1 <0>        0.00000
     17 H1         -1.0834   -0.4544    0.0000 H         1 <0>        0.00000
     18 H2          1.1088   -0.8185    0.0000 H         1 <0>        0.00000
     19 H3          0.3398    2.0280    0.0000 H         1 <0>        0.00000
     20 H4          1.8370   -1.9720    0.0000 H         1 <0>        0.00000
     21 H5          1.8370   -1.9720    0.0000 H         1 <0>        0.00000
     22 H6          1.8370   -1.9720    0.0000 H         1 <0>        0.00000
@<TRIPOS>BOND
     1    1    2 ar
     2    2    3 ar
     3    1    4 ar
     4    5    6 ar
     5    4    6 ar
     6    1    7 1
     7    3    8 1
     8    8    9 am
     9    7   10 2
    10    2   11 1
    11    9   12 2
    12    4   13 1
    13    5   14 1
    14    7   15 1
    15    9   16 1
    16    3    5 ar
    17    6   17 1
    18    8   18 1
    19   15   19 1
    20   16   20 1
    21   16   21 1
    22   16   22 1
@<TRIPOS>SUBSTRUCTURE
     1 <0>         1 GROUP 0 A     ****
@<TRIPOS>MOLECULE
MiniDrugBank_83
   35    36     1     0     0
SMALL
NO_CHARGES

@<TRIPOS>ATOM
      1 C1          1.3047    0.3228    0.0000 C.ar      1 <0>        0.00000
      2 C2          1.3047   -0.5022    0.0000 C.ar      1 <0>        0.00000
      3 C3          0.5902   -0.9147    0.0000 C.ar      1 <0>        0.00000
      4 C4         -0.1243   -0.5022    0.0000 C.ar      1 <0>        0.00000
      5 C5         -0.1243    0.3228    0.0000 C.ar      1 <0>        0.00000
      6 C6          0.5902    0.7353    0.0000 C.ar      1 <0>        0.00000
      7 C7          3.4481    0.7353    0.0000 C.2       1 <0>        0.00000
      8 O1          3.4481    1.5603    0.0000 O.2       1 <0>        0.00000
      9 C8          2.7336    0.3228    0.0000 C.3       1 <0>        0.00000
     10 C9          2.0192    0.7353    0.0000 C.3       1 <0>        0.00000
     11 N1          2.7336   -0.5022    0.0000 N.3       1 <0>        0.00000
     12 O2          4.1626    0.3228    0.0000 O.3       1 <0>        0.00000
     13 I1          0.5902   -1.7397    0.0000 I         1 <0>        0.00000
     14 O3         -0.8387   -0.9147    0.0000 O.3       1 <0>        0.00000
     15 O4         -3.6966    0.7353    0.0000 O.3       1 <0>        0.00000
     16 I2         -3.6966   -0.9147    0.0000 I         1 <0>        0.00000
     17 C10        -1.5532   -0.5022    0.0000 C.ar      1 <0>        0.00000
     18 C11        -2.9821   -0.5022    0.0000 C.ar      1 <0>        0.00000
     19 C12        -2.2677   -0.9147    0.0000 C.ar      1 <0>        0.00000
     20 C13        -1.5532    0.3228    0.0000 C.ar      1 <0>        0.00000
     21 C14        -2.9821    0.3228    0.0000 C.ar      1 <0>        0.00000
     22 I3         -0.8387    0.7353    0.0000 I         1 <0>        0.00000
     23 C15        -2.2677    0.7353    0.0000 C.ar      1 <0>        0.00000
     24 I4         -2.2677    1.5603    0.0000 I         1 <0>        0.00000
     25 H1          1.3047   -0.5022    0.0000 H         1 <0>        0.00000
     26 H2          0.5902    0.7353    0.0000 H         1 <0>        0.00000
     27 H3          2.7336    0.3228    0.0000 H         1 <0>        0.00000
     28 H4          2.0192    0.7353    0.0000 H         1 <0>        0.00000
     29 H5          2.0192    0.7353    0.0000 H         1 <0>        0.00000
     30 H6          2.7336   -0.5022    0.0000 H         1 <0>        0.00000
     31 H7          2.7336   -0.5022    0.0000 H         1 <0>        0.00000
     32 H8          4.1626    0.3228    0.0000 H         1 <0>        0.00000
     33 H9         -3.6966    0.7353    0.0000 H         1 <0>        0.00000
     34 H10        -2.2677   -0.9147    0.0000 H         1 <0>        0.00000
     35 H11        -1.5532    0.3228    0.0000 H         1 <0>        0.00000
@<TRIPOS>BOND
     1    7    9 1
     2    7    8 2
     3    7   12 1
     4    9   10 1
     5    9   11 1
     6    1   10 1
     7    4   14 1
     8    1    2 ar
     9    1    6 ar
    10    4    5 ar
    11    3    4 ar
    12    2    3 ar
    13    5    6 ar
    14    3   13 1
    15   14   17 1
    16   15   21 1
    17   16   18 1
    18   17   19 ar
    19   18   19 ar
    20   17   20 ar
    21   20   23 ar
    22   21   23 ar
    23   18   21 ar
    24    5   22 1
    25   23   24 1
    26    2   25 1
    27    6   26 1
    28    9   27 1
    29   10   28 1
    30   10   29 1
    31   11   30 1
    32   11   31 1
    33   12   32 1
    34   15   33 1
    35   19   34 1
    36   20   35 1
@<TRIPOS>SUBSTRUCTURE
     1 <0>         1 GROUP 0 A     ****
@<TRIPOS>MOLECULE
MiniDrugBank_84
    5     4     1     0     0
SMALL
NO_CHARGES

@<TRIPOS>ATOM
      1 S1          2.4750   -1.4289    0.0000 S.3       1 <0>        0.00000
      2 S2          2.0625   -0.7145    0.0000 S.3       1 <0>        0.00000
      3 S3          1.2375   -0.7145    0.0000 S.3       1 <0>        0.00000
      4 S4          0.8250    0.0000    0.0000 S.3       1 <0>        0.00000
      5 S5          0.0000    0.0000    0.0000 S.3       1 <0>        0.00000
@<TRIPOS>BOND
     1    1    2 1
     2    2    3 1
     3    3    4 1
     4    4    5 1
@<TRIPOS>SUBSTRUCTURE
     1 <0>         1 GROUP 0 A     ****
@<TRIPOS>MOLECULE
530
   52    54     1     0     0
SMALL
NO_CHARGES

@<TRIPOS>ATOM
      1 O1          4.5080    0.2782    0.0000 O.3       1 <0>        0.00000
      2 O2          4.5080    1.9282    0.0000 O.3       1 <0>        0.00000
      3 O3          2.3645    0.6907    0.0000 O.3       1 <0>        0.00000
      4 O4          3.7935    3.9908    0.0000 O.3       1 <0>        0.00000
      5 N1          7.3795   -0.5754    0.0000 N.pl3     1 <0>        0.00000
      6 N2          7.3889    1.9568    0.0000 N.ar      1 <0>        0.00000
      7 N3          8.1365    0.6735    0.0000 N.ar      1 <0>        0.00000
      8 C1          6.6515    0.6907    0.0000 C.ar      1 <0>        0.00000
      9 C2          6.6515    1.5157    0.0000 C.ar      1 <0>        0.00000
     10 C3          5.2224    0.6907    0.0000 C.ar      1 <0>        0.00000
     11 C4          5.2224    1.5157    0.0000 C.ar      1 <0>        0.00000
     12 C5          5.9370    0.2782    0.0000 C.ar      1 <0>        0.00000
     13 C6          7.3889    0.2496    0.0000 C.ar      1 <0>        0.00000
     14 C7          5.9370    1.9282    0.0000 C.ar      1 <0>        0.00000
     15 C8          3.7935    0.6907    0.0000 C.3       1 <0>        0.00000
     16 C9          8.0891   -0.9961    0.0000 C.ar      1 <0>        0.00000
     17 C10         4.5080    2.7533    0.0000 C.3       1 <0>        0.00000
     18 C11         8.1365    1.5329    0.0000 C.ar      1 <0>        0.00000
     19 C12         3.0791    0.2782    0.0000 C.3       1 <0>        0.00000
     20 C13         3.7935    3.1658    0.0000 C.3       1 <0>        0.00000
     21 C14         8.0796   -1.8211    0.0000 C.ar      1 <0>        0.00000
     22 C15         8.8083   -0.5920    0.0000 C.ar      1 <0>        0.00000
     23 C16         8.7892   -2.2418    0.0000 C.ar      1 <0>        0.00000
     24 C17         9.5180   -1.0126    0.0000 C.ar      1 <0>        0.00000
     25 C18         9.5084   -1.8376    0.0000 C.ar      1 <0>        0.00000
     26 C19         1.6500    0.2782    0.0000 C.3       1 <0>        0.00000
     27 C20         3.0791    4.4033    0.0000 C.3       1 <0>        0.00000
     28 C21         8.7797   -3.0668    0.0000 C.1       1 <0>        0.00000
     29 C22         8.7701   -3.8918    0.0000 C.1       1 <0>        0.00000
     30 H1          7.3795   -0.5754    0.0000 H         1 <0>        0.00000
     31 H2          5.9370    0.2782    0.0000 H         1 <0>        0.00000
     32 H3          5.9370    1.9282    0.0000 H         1 <0>        0.00000
     33 H4          3.7935    0.6907    0.0000 H         1 <0>        0.00000
     34 H5          3.7935    0.6907    0.0000 H         1 <0>        0.00000
     35 H6          4.5080    2.7533    0.0000 H         1 <0>        0.00000
     36 H7          4.5080    2.7533    0.0000 H         1 <0>        0.00000
     37 H8          8.1365    1.5329    0.0000 H         1 <0>        0.00000
     38 H9          3.0791    0.2782    0.0000 H         1 <0>        0.00000
     39 H10         3.0791    0.2782    0.0000 H         1 <0>        0.00000
     40 H11         3.7935    3.1658    0.0000 H         1 <0>        0.00000
     41 H12         3.7935    3.1658    0.0000 H         1 <0>        0.00000
     42 H13         8.0796   -1.8211    0.0000 H         1 <0>        0.00000
     43 H14         8.8083   -0.5920    0.0000 H         1 <0>        0.00000
     44 H15         9.5180   -1.0126    0.0000 H         1 <0>        0.00000
     45 H16         9.5084   -1.8376    0.0000 H         1 <0>        0.00000
     46 H17         1.6500    0.2782    0.0000 H         1 <0>        0.00000
     47 H18         1.6500    0.2782    0.0000 H         1 <0>        0.00000
     48 H19         1.6500    0.2782    0.0000 H         1 <0>        0.00000
     49 H20         3.0791    4.4033    0.0000 H         1 <0>        0.00000
     50 H21         3.0791    4.4033    0.0000 H         1 <0>        0.00000
     51 H22         3.0791    4.4033    0.0000 H         1 <0>        0.00000
     52 H23         8.7701   -3.8918    0.0000 H         1 <0>        0.00000
@<TRIPOS>BOND
     1    1   10 1
     2    1   15 1
     3    2   11 1
     4    2   17 1
     5    3   19 1
     6    3   26 1
     7    4   20 1
     8    4   27 1
     9    5   13 1
    10    5   16 1
    11    6    9 ar
    12    6   18 ar
    13    7   13 ar
    14    7   18 ar
    15    8    9 ar
    16    8   12 ar
    17    8   13 ar
    18    9   14 ar
    19   10   11 ar
    20   10   12 ar
    21   11   14 ar
    22   15   19 1
    23   16   21 ar
    24   16   22 ar
    25   17   20 1
    26   21   23 ar
    27   22   24 ar
    28   23   25 ar
    29   23   28 1
    30   24   25 ar
    31   28   29 3
    32    5   30 1
    33   12   31 1
    34   14   32 1
    35   15   33 1
    36   15   34 1
    37   17   35 1
    38   17   36 1
    39   18   37 1
    40   19   38 1
    41   19   39 1
    42   20   40 1
    43   20   41 1
    44   21   42 1
    45   22   43 1
    46   24   44 1
    47   25   45 1
    48   26   46 1
    49   26   47 1
    50   26   48 1
    51   27   49 1
    52   27   50 1
    53   27   51 1
    54   29   52 1
@<TRIPOS>SUBSTRUCTURE
     1 <0>         1 GROUP 0 A     ****
@<TRIPOS>MOLECULE
MiniDrugBank_86
  104   110     1     0     0
SMALL
NO_CHARGES

@<TRIPOS>ATOM
      1 C1          8.2225   -6.5717    0.0000 C.2       1 <0>        0.00000
      2 C2          3.5954   -5.0748    0.0000 C.3       1 <0>        0.00000
      3 C3          2.9555   -4.0992    0.0000 C.3       1 <0>        0.00000
      4 C4          4.5710   -4.4350    0.0000 C.3       1 <0>        0.00000
      5 C5         11.4300   -2.4900    0.0000 C.3       1 <0>        0.00000
      6 C6          7.5882   -6.0441    0.0000 C.2       1 <0>        0.00000
      7 C7          5.3861    0.0301    0.0000 C.3       1 <0>        0.00000
      8 C8          4.6027   -0.2284    0.0000 C.3       1 <0>        0.00000
      9 C9          6.0017   -0.5192    0.0000 C.3       1 <0>        0.00000
     10 C10         4.4348   -1.0361    0.0000 C.3       1 <0>        0.00000
     11 C11         6.7852   -0.2607    0.0000 C.3       1 <0>        0.00000
     12 C12        10.1988   -1.3915    0.0000 C.ar      1 <0>        0.00000
     13 C13         3.3479   -8.2311    0.0000 C.3       1 <0>        0.00000
     14 C14         4.1701   -8.2994    0.0000 C.3       1 <0>        0.00000
     15 C15         9.5833   -0.8423    0.0000 C.ar      1 <0>        0.00000
     16 C16         2.8679   -1.5531    0.0000 C.3       1 <0>        0.00000
     17 C17         9.2475   -2.4577    0.0000 C.ar      1 <0>        0.00000
     18 C18         6.6972   -3.3965    0.0000 C.3       1 <0>        0.00000
     19 C19         6.2866   -6.9639    0.0000 C.3       1 <0>        0.00000
     20 C20         5.4980   -2.9424    0.0000 C.3       1 <0>        0.00000
     21 C21         3.6513   -1.2946    0.0000 C.3       1 <0>        0.00000
     22 C22         6.8142   -6.3296    0.0000 C.3       1 <0>        0.00000
     23 C23        10.0309   -2.1993    0.0000 C.ar      1 <0>        0.00000
     24 C24         6.2815   -2.6839    0.0000 C.3       1 <0>        0.00000
     25 C25         3.8182   -7.5532    0.0000 C.3       1 <0>        0.00000
     26 C26         8.7998   -1.1007    0.0000 C.ar      1 <0>        0.00000
     27 C27         7.4007   -0.8100    0.0000 C.ar      1 <0>        0.00000
     28 C28         8.6319   -1.9085    0.0000 C.ar      1 <0>        0.00000
     29 C29         6.1480   -4.0121    0.0000 C.3       1 <0>        0.00000
     30 C30         3.4834   -2.1023    0.0000 C.3       1 <0>        0.00000
     31 C31         3.9311   -3.4593    0.0000 C.3       1 <0>        0.00000
     32 C32         6.3649   -4.8080    0.0000 C.2       1 <0>        0.00000
     33 C33         7.2329   -1.6177    0.0000 C.ar      1 <0>        0.00000
     34 C34         4.5467   -4.0086    0.0000 C.2       1 <0>        0.00000
     35 C35         5.1789   -6.1215    0.0000 C.2       1 <0>        0.00000
     36 C36         2.5321   -3.1685    0.0000 C.2       1 <0>        0.00000
     37 C37         3.7632   -4.2671    0.0000 C.3       1 <0>        0.00000
     38 C38         6.0011   -6.1899    0.0000 C.3       1 <0>        0.00000
     39 N1          8.1842   -0.5515    0.0000 N.ar      1 <0>        0.00000
     40 N2          7.8484   -2.1670    0.0000 N.ar      1 <0>        0.00000
     41 N3          3.1477   -3.7178    0.0000 N.2       1 <0>        0.00000
     42 N4          5.7841   -5.3939    0.0000 N.2       1 <0>        0.00000
     43 N5          4.7087   -6.7994    0.0000 N.2       1 <0>        0.00000
     44 N6          5.3302   -3.7501    0.0000 N.am      1 <0>        0.00000
     45 O1          7.1628   -5.0181    0.0000 O.3       1 <0>        0.00000
     46 O2          4.8857   -4.7607    0.0000 O.2       1 <0>        0.00000
     47 O3          4.8270   -5.3754    0.0000 O.3       1 <0>        0.00000
     48 O4          1.7486   -3.4270    0.0000 O.3       1 <0>        0.00000
     49 O5          3.0643   -6.6627    0.0000 O.2       1 <0>        0.00000
     50 O6          3.9548   -5.9089    0.0000 O.2       1 <0>        0.00000
     51 O7         10.6465   -2.7485    0.0000 O.3       1 <0>        0.00000
     52 O8          6.4494   -1.8762    0.0000 O.3       1 <0>        0.00000
     53 O9          2.7000   -2.3608    0.0000 O.3       1 <0>        0.00000
     54 S1          3.8865   -6.7310    0.0000 S.o2      1 <0>        0.00000
     55 H1          3.3928   -0.5111    0.0000 H         1 <0>        0.00000
     56 H2          7.2903   -7.0034    0.0000 H         1 <0>        0.00000
     57 H3          7.0958   -2.5512    0.0000 H         1 <0>        0.00000
     58 H4          6.9510   -4.2011    0.0000 H         1 <0>        0.00000
     59 H5          2.6757   -1.9344    0.0000 H         1 <0>        0.00000
     60 H6          4.1896   -4.2428    0.0000 H         1 <0>        0.00000
     61 H7          8.2225   -6.5717    0.0000 H         1 <0>        0.00000
     62 H8          8.2225   -6.5717    0.0000 H         1 <0>        0.00000
     63 H9          3.5954   -5.0748    0.0000 H         1 <0>        0.00000
     64 H10         3.5954   -5.0748    0.0000 H         1 <0>        0.00000
     65 H11         3.5954   -5.0748    0.0000 H         1 <0>        0.00000
     66 H12         2.9555   -4.0992    0.0000 H         1 <0>        0.00000
     67 H13         2.9555   -4.0992    0.0000 H         1 <0>        0.00000
     68 H14         2.9555   -4.0992    0.0000 H         1 <0>        0.00000
     69 H15         4.5710   -4.4350    0.0000 H         1 <0>        0.00000
     70 H16         4.5710   -4.4350    0.0000 H         1 <0>        0.00000
     71 H17         4.5710   -4.4350    0.0000 H         1 <0>        0.00000
     72 H18        11.4300   -2.4900    0.0000 H         1 <0>        0.00000
     73 H19        11.4300   -2.4900    0.0000 H         1 <0>        0.00000
     74 H20        11.4300   -2.4900    0.0000 H         1 <0>        0.00000
     75 H21         7.5882   -6.0441    0.0000 H         1 <0>        0.00000
     76 H22         5.3861    0.0301    0.0000 H         1 <0>        0.00000
     77 H23         5.3861    0.0301    0.0000 H         1 <0>        0.00000
     78 H24         4.6027   -0.2284    0.0000 H         1 <0>        0.00000
     79 H25         4.6027   -0.2284    0.0000 H         1 <0>        0.00000
     80 H26         6.0017   -0.5192    0.0000 H         1 <0>        0.00000
     81 H27         6.0017   -0.5192    0.0000 H         1 <0>        0.00000
     82 H28         4.4348   -1.0361    0.0000 H         1 <0>        0.00000
     83 H29         4.4348   -1.0361    0.0000 H         1 <0>        0.00000
     84 H30         6.7852   -0.2607    0.0000 H         1 <0>        0.00000
     85 H31         6.7852   -0.2607    0.0000 H         1 <0>        0.00000
     86 H32        10.1988   -1.3915    0.0000 H         1 <0>        0.00000
     87 H33         3.3479   -8.2311    0.0000 H         1 <0>        0.00000
     88 H34         3.3479   -8.2311    0.0000 H         1 <0>        0.00000
     89 H35         4.1701   -8.2994    0.0000 H         1 <0>        0.00000
     90 H36         4.1701   -8.2994    0.0000 H         1 <0>        0.00000
     91 H37         9.5833   -0.8423    0.0000 H         1 <0>        0.00000
     92 H38         2.8679   -1.5531    0.0000 H         1 <0>        0.00000
     93 H39         2.8679   -1.5531    0.0000 H         1 <0>        0.00000
     94 H40         9.2475   -2.4577    0.0000 H         1 <0>        0.00000
     95 H41         6.6972   -3.3965    0.0000 H         1 <0>        0.00000
     96 H42         6.6972   -3.3965    0.0000 H         1 <0>        0.00000
     97 H43         6.2866   -6.9639    0.0000 H         1 <0>        0.00000
     98 H44         6.2866   -6.9639    0.0000 H         1 <0>        0.00000
     99 H45         5.4980   -2.9424    0.0000 H         1 <0>        0.00000
    100 H46         5.4980   -2.9424    0.0000 H         1 <0>        0.00000
    101 H47         3.8182   -7.5532    0.0000 H         1 <0>        0.00000
    102 H48         7.1628   -5.0181    0.0000 H         1 <0>        0.00000
    103 H49         4.8270   -5.3754    0.0000 H         1 <0>        0.00000
    104 H50         1.7486   -3.4270    0.0000 H         1 <0>        0.00000
@<TRIPOS>BOND
     1    1    6 2
     2    7    8 1
     3    7    9 1
     4    8   10 1
     5    9   11 1
     6   13   14 1
     7   12   15 ar
     8   10   21 1
     9   16   21 1
    10    6   22 1
    11   19   22 1
    12   12   23 ar
    13   17   23 ar
    14   18   24 1
    15   20   24 1
    16   13   25 1
    17   14   25 1
    18   15   26 ar
    19   11   27 1
    20   17   28 ar
    21   26   28 ar
    22   18   29 1
    23   16   30 1
    24   21   30 1
    25   29   32 1
    26   27   33 ar
    27   31   34 1
    28    2   37 1
    29    3   37 1
    30    4   37 1
    31   31   37 1
    32   19   38 1
    33   22   38 1
    34   35   38 1
    35   26   39 ar
    36   27   39 ar
    37   28   40 ar
    38   33   40 ar
    39   31   41 1
    40   36   41 2
    41   32   42 2
    42   38   42 1
    43   35   43 2
    44   20   44 1
    45   29   44 1
    46   34   44 am
    47   32   45 1
    48   34   46 2
    49   35   47 1
    50   36   48 1
    51    5   51 1
    52   23   51 1
    53   24   52 1
    54   33   52 1
    55   30   53 1
    56   36   53 1
    57   25   54 1
    58   43   54 1
    59   49   54 2
    60   50   54 2
    61   21   55 1
    62   22   56 1
    63   24   57 1
    64   29   58 1
    65   30   59 1
    66   31   60 1
    67    1   61 1
    68    1   62 1
    69    2   63 1
    70    2   64 1
    71    2   65 1
    72    3   66 1
    73    3   67 1
    74    3   68 1
    75    4   69 1
    76    4   70 1
    77    4   71 1
    78    5   72 1
    79    5   73 1
    80    5   74 1
    81    6   75 1
    82    7   76 1
    83    7   77 1
    84    8   78 1
    85    8   79 1
    86    9   80 1
    87    9   81 1
    88   10   82 1
    89   10   83 1
    90   11   84 1
    91   11   85 1
    92   12   86 1
    93   13   87 1
    94   13   88 1
    95   14   89 1
    96   14   90 1
    97   15   91 1
    98   16   92 1
    99   16   93 1
   100   17   94 1
   101   18   95 1
   102   18   96 1
   103   19   97 1
   104   19   98 1
   105   20   99 1
   106   20  100 1
   107   25  101 1
   108   45  102 1
   109   47  103 1
   110   48  104 1
@<TRIPOS>SUBSTRUCTURE
     1 <0>         1 GROUP 0 A     ****
@<TRIPOS>MOLECULE
B3N
   47    47     1     0     0
SMALL
NO_CHARGES

@<TRIPOS>ATOM
      1 O1         -1.0439    1.4219    0.0000 O.2       1 <0>        0.00000
      2 C1         -1.0439    0.5969    0.0000 C.2       1 <0>        0.00000
      3 C2         -1.7584    0.1844    0.0000 C.ar      1 <0>        0.00000
      4 C3         -1.7584   -0.6406    0.0000 C.ar      1 <0>        0.00000
      5 C4         -2.4728   -1.0531    0.0000 C.ar      1 <0>        0.00000
      6 C5         -3.1873   -0.6406    0.0000 C.ar      1 <0>        0.00000
      7 N1         -3.9018   -1.0531    0.0000 N.pl3     1 <0>        0.00000
      8 C6         -4.6163   -0.6406    0.0000 C.3       1 <0>        0.00000
      9 C7         -3.9018   -1.8781    0.0000 C.3       1 <0>        0.00000
     10 C8         -3.1873    0.1844    0.0000 C.ar      1 <0>        0.00000
     11 C9         -2.4728    0.5969    0.0000 C.ar      1 <0>        0.00000
     12 N2         -0.3294    0.1844    0.0000 N.am      1 <0>        0.00000
     13 C10         0.3850    0.5969    0.0000 C.3       1 <0>        0.00000
     14 C11         1.0995    0.1844    0.0000 C.3       1 <0>        0.00000
     15 C12         1.8140    0.5969    0.0000 C.3       1 <0>        0.00000
     16 C13         2.5285    0.1844    0.0000 C.3       1 <0>        0.00000
     17 C14         3.2429    0.5969    0.0000 C.3       1 <0>        0.00000
     18 C15         3.9574    0.1844    0.0000 C.3       1 <0>        0.00000
     19 C16         4.6719    0.5969    0.0000 C.3       1 <0>        0.00000
     20 O2          4.6719    1.4219    0.0000 O.3       1 <0>        0.00000
     21 N3          5.3863    0.1844    0.0000 N.2       1 <0>        0.00000
     22 O3          6.1008    0.5969    0.0000 O.2       1 <0>        0.00000
     23 H1          4.1662    0.8888    0.0000 H         1 <0>        0.00000
     24 H2         -1.7584   -0.6406    0.0000 H         1 <0>        0.00000
     25 H3         -2.4728   -1.0531    0.0000 H         1 <0>        0.00000
     26 H4         -4.6163   -0.6406    0.0000 H         1 <0>        0.00000
     27 H5         -4.6163   -0.6406    0.0000 H         1 <0>        0.00000
     28 H6         -4.6163   -0.6406    0.0000 H         1 <0>        0.00000
     29 H7         -3.9018   -1.8781    0.0000 H         1 <0>        0.00000
     30 H8         -3.9018   -1.8781    0.0000 H         1 <0>        0.00000
     31 H9         -3.9018   -1.8781    0.0000 H         1 <0>        0.00000
     32 H10        -3.1873    0.1844    0.0000 H         1 <0>        0.00000
     33 H11        -2.4728    0.5969    0.0000 H         1 <0>        0.00000
     34 H12        -0.3294    0.1844    0.0000 H         1 <0>        0.00000
     35 H13         0.3850    0.5969    0.0000 H         1 <0>        0.00000
     36 H14         0.3850    0.5969    0.0000 H         1 <0>        0.00000
     37 H15         1.0995    0.1844    0.0000 H         1 <0>        0.00000
     38 H16         1.0995    0.1844    0.0000 H         1 <0>        0.00000
     39 H17         1.8140    0.5969    0.0000 H         1 <0>        0.00000
     40 H18         1.8140    0.5969    0.0000 H         1 <0>        0.00000
     41 H19         2.5285    0.1844    0.0000 H         1 <0>        0.00000
     42 H20         2.5285    0.1844    0.0000 H         1 <0>        0.00000
     43 H21         3.2429    0.5969    0.0000 H         1 <0>        0.00000
     44 H22         3.2429    0.5969    0.0000 H         1 <0>        0.00000
     45 H23         3.9574    0.1844    0.0000 H         1 <0>        0.00000
     46 H24         3.9574    0.1844    0.0000 H         1 <0>        0.00000
     47 H25         4.6719    1.4219    0.0000 H         1 <0>        0.00000
@<TRIPOS>BOND
     1    1    2 2
     2    2    3 1
     3    2   12 am
     4    3    4 ar
     5    3   11 ar
     6    4    5 ar
     7    5    6 ar
     8    6    7 1
     9    6   10 ar
    10    7    8 1
    11    7    9 1
    12   10   11 ar
    13   12   13 1
    14   13   14 1
    15   14   15 1
    16   15   16 1
    17   16   17 1
    18   17   18 1
    19   18   19 1
    20   19   20 1
    21   19   21 1
    22   19   23 1
    23   21   22 2
    24    4   24 1
    25    5   25 1
    26    8   26 1
    27    8   27 1
    28    8   28 1
    29    9   29 1
    30    9   30 1
    31    9   31 1
    32   10   32 1
    33   11   33 1
    34   12   34 1
    35   13   35 1
    36   13   36 1
    37   14   37 1
    38   14   38 1
    39   15   39 1
    40   15   40 1
    41   16   41 1
    42   16   42 1
    43   17   43 1
    44   17   44 1
    45   18   45 1
    46   18   46 1
    47   20   47 1
@<TRIPOS>SUBSTRUCTURE
     1 <0>         1 GROUP 0 A     ****
@<TRIPOS>MOLECULE
MiniDrugBank_88
  142   152     1     0     0
SMALL
NO_CHARGES

@<TRIPOS>ATOM
      1 C1         10.7427    3.2869    0.0000 C.3       1 <0>        0.00000
      2 N1          9.9786    2.9758    0.0000 N.am      1 <0>        0.00000
      3 C2          9.8660    2.1585    0.0000 C.2       1 <0>        0.00000
      4 O1          9.1019    1.8474    0.0000 O.2       1 <0>        0.00000
      5 C3         10.5175    1.6524    0.0000 C.3       1 <0>        0.00000
      6 C4         10.4049    0.8351    0.0000 C.3       1 <0>        0.00000
      7 N2         11.1957    0.6001    0.0000 N.am      1 <0>        0.00000
      8 C5         11.9175    0.2005    0.0000 C.2       1 <0>        0.00000
      9 O2         12.3927    0.8749    0.0000 O.2       1 <0>        0.00000
     10 C6         12.5365   -0.3449    0.0000 C.ar      1 <0>        0.00000
     11 C7         13.3435   -0.1733    0.0000 C.ar      1 <0>        0.00000
     12 S1         13.7560   -0.8878    0.0000 S.3       1 <0>        0.00000
     13 C8         13.2039   -1.5009    0.0000 C.ar      1 <0>        0.00000
     14 N3         12.4503   -1.1653    0.0000 N.ar      1 <0>        0.00000
     15 C9         13.5194   -2.5742    0.0000 C.ar      1 <0>        0.00000
     16 C10        14.2412   -2.1747    0.0000 C.ar      1 <0>        0.00000
     17 C11        14.9481   -2.6000    0.0000 C.ar      1 <0>        0.00000
     18 C12        14.9332   -3.4249    0.0000 C.ar      1 <0>        0.00000
     19 N4         14.2114   -3.8244    0.0000 N.ar      1 <0>        0.00000
     20 C13        13.5045   -3.3991    0.0000 C.ar      1 <0>        0.00000
     21 C14        13.3126   -4.2015    0.0000 C.ar      1 <0>        0.00000
     22 C15        13.8422   -4.8341    0.0000 C.ar      1 <0>        0.00000
     23 S2         13.4041   -5.5332    0.0000 S.3       1 <0>        0.00000
     24 C16        12.6039   -5.3326    0.0000 C.ar      1 <0>        0.00000
     25 N5         12.5473   -4.5096    0.0000 N.ar      1 <0>        0.00000
     26 C17        11.8034   -6.1141    0.0000 C.ar      1 <0>        0.00000
     27 C18        11.8421   -6.9382    0.0000 C.ar      1 <0>        0.00000
     28 S3         11.0703   -7.2297    0.0000 S.3       1 <0>        0.00000
     29 C19        10.5546   -6.5857    0.0000 C.ar      1 <0>        0.00000
     30 N6         11.0077   -5.8963    0.0000 N.ar      1 <0>        0.00000
     31 C20         9.4444   -6.7234    0.0000 C.3       1 <0>        0.00000
     32 N7          8.6328   -6.5752    0.0000 N.am      1 <0>        0.00000
     33 C21         7.8720   -6.2561    0.0000 C.2       1 <0>        0.00000
     34 O3          7.4725   -6.9779    0.0000 O.2       1 <0>        0.00000
     35 C22         7.1976   -5.7808    0.0000 C.3       1 <0>        0.00000
     36 N8          6.6412   -5.1717    0.0000 N.am      1 <0>        0.00000
     37 C23         6.2287   -4.4573    0.0000 C.2       1 <0>        0.00000
     38 O4          5.4738   -4.7901    0.0000 O.2       1 <0>        0.00000
     39 C24         5.9795   -3.6708    0.0000 C.ar      1 <0>        0.00000
     40 C25         5.1996   -3.4017    0.0000 C.ar      1 <0>        0.00000
     41 C26         4.5235   -3.8745    0.0000 C.3       1 <0>        0.00000
     42 O5          3.7760   -3.5254    0.0000 O.3       1 <0>        0.00000
     43 C27         3.0999   -3.9982    0.0000 C.3       1 <0>        0.00000
     44 S4          5.2145   -2.5769    0.0000 S.3       1 <0>        0.00000
     45 C28         6.0036   -2.3362    0.0000 C.ar      1 <0>        0.00000
     46 N9          6.4764   -3.0122    0.0000 N.ar      1 <0>        0.00000
     47 C29         6.2866   -1.2538    0.0000 C.3       1 <0>        0.00000
     48 N10         6.7247   -0.5547    0.0000 N.am      1 <0>        0.00000
     49 C30         7.3027    0.0339    0.0000 C.2       1 <0>        0.00000
     50 O6          6.7801    0.6722    0.0000 O.2       1 <0>        0.00000
     51 C31         7.9938    0.4844    0.0000 C.ar      1 <0>        0.00000
     52 C32         8.0445    1.3079    0.0000 C.ar      1 <0>        0.00000
     53 C33         7.4080    1.8328    0.0000 C.3       1 <0>        0.00000
     54 S5          8.8432    1.5142    0.0000 S.3       1 <0>        0.00000
     55 C34         9.2863    0.8183    0.0000 C.ar      1 <0>        0.00000
     56 N11         8.7613    0.1818    0.0000 N.ar      1 <0>        0.00000
     57 C35         5.5293   -0.9267    0.0000 C.3       1 <0>        0.00000
     58 C36         5.4339   -0.1072    0.0000 C.3       1 <0>        0.00000
     59 C37         4.8673   -1.4190    0.0000 C.3       1 <0>        0.00000
     60 C38         9.4208   -7.5481    0.0000 C.3       1 <0>        0.00000
     61 O7          8.6948   -7.9400    0.0000 O.3       1 <0>        0.00000
     62 C39        10.1232   -7.9808    0.0000 C.ar      1 <0>        0.00000
     63 C40        10.8491   -7.5889    0.0000 C.ar      1 <0>        0.00000
     64 C41        11.5515   -8.0217    0.0000 C.ar      1 <0>        0.00000
     65 C42        11.5279   -8.8463    0.0000 C.ar      1 <0>        0.00000
     66 C43        10.8020   -9.2382    0.0000 C.ar      1 <0>        0.00000
     67 C44        10.0996   -8.8055    0.0000 C.ar      1 <0>        0.00000
     68 C45        15.6401   -3.8503    0.0000 C.ar      1 <0>        0.00000
     69 N12        16.3997   -3.5284    0.0000 N.ar      1 <0>        0.00000
     70 C46        16.9406   -4.1513    0.0000 C.ar      1 <0>        0.00000
     71 C47        16.5153   -4.8582    0.0000 C.ar      1 <0>        0.00000
     72 S6         15.7115   -4.6722    0.0000 S.3       1 <0>        0.00000
     73 C48        17.7625   -4.0799    0.0000 C.2       1 <0>        0.00000
     74 N13        18.1879   -3.3730    0.0000 N.2       1 <0>        0.00000
     75 C49        18.9916   -3.5591    0.0000 C.3       1 <0>        0.00000
     76 C50        19.0630   -4.3810    0.0000 C.3       1 <0>        0.00000
     77 O8         18.3034   -4.7029    0.0000 O.3       1 <0>        0.00000
     78 C51        19.6146   -3.0183    0.0000 C.2       1 <0>        0.00000
     79 O9         20.3945   -3.2873    0.0000 O.2       1 <0>        0.00000
     80 N14        19.4577   -2.2083    0.0000 N.am      1 <0>        0.00000
     81 C52        18.7102   -1.8592    0.0000 C.3       1 <0>        0.00000
     82 C53        18.8112   -1.0404    0.0000 C.3       1 <0>        0.00000
     83 C54        19.6212   -0.8835    0.0000 C.3       1 <0>        0.00000
     84 C55        20.0207   -1.6053    0.0000 C.3       1 <0>        0.00000
     85 C56        20.8395   -1.7064    0.0000 C.2       1 <0>        0.00000
     86 N15        21.3364   -1.0478    0.0000 N.am      1 <0>        0.00000
     87 O10        21.1613   -2.4660    0.0000 O.2       1 <0>        0.00000
     88 H1         10.7427    3.2869    0.0000 H         1 <0>        0.00000
     89 H2         10.7427    3.2869    0.0000 H         1 <0>        0.00000
     90 H3         10.7427    3.2869    0.0000 H         1 <0>        0.00000
     91 H4          9.9786    2.9758    0.0000 H         1 <0>        0.00000
     92 H5         10.5175    1.6524    0.0000 H         1 <0>        0.00000
     93 H6         10.5175    1.6524    0.0000 H         1 <0>        0.00000
     94 H7         10.4049    0.8351    0.0000 H         1 <0>        0.00000
     95 H8         11.1957    0.6001    0.0000 H         1 <0>        0.00000
     96 H9         13.3435   -0.1733    0.0000 H         1 <0>        0.00000
     97 H10        14.2412   -2.1747    0.0000 H         1 <0>        0.00000
     98 H11        14.9481   -2.6000    0.0000 H         1 <0>        0.00000
     99 H12        13.8422   -4.8341    0.0000 H         1 <0>        0.00000
    100 H13        11.8421   -6.9382    0.0000 H         1 <0>        0.00000
    101 H14         9.4444   -6.7234    0.0000 H         1 <0>        0.00000
    102 H15         8.6328   -6.5752    0.0000 H         1 <0>        0.00000
    103 H16         7.1976   -5.7808    0.0000 H         1 <0>        0.00000
    104 H17         7.1976   -5.7808    0.0000 H         1 <0>        0.00000
    105 H18         6.6412   -5.1717    0.0000 H         1 <0>        0.00000
    106 H19         4.5235   -3.8745    0.0000 H         1 <0>        0.00000
    107 H20         4.5235   -3.8745    0.0000 H         1 <0>        0.00000
    108 H21         3.0999   -3.9982    0.0000 H         1 <0>        0.00000
    109 H22         3.0999   -3.9982    0.0000 H         1 <0>        0.00000
    110 H23         3.0999   -3.9982    0.0000 H         1 <0>        0.00000
    111 H24         6.2866   -1.2538    0.0000 H         1 <0>        0.00000
    112 H25         6.7247   -0.5547    0.0000 H         1 <0>        0.00000
    113 H26         7.4080    1.8328    0.0000 H         1 <0>        0.00000
    114 H27         7.4080    1.8328    0.0000 H         1 <0>        0.00000
    115 H28         7.4080    1.8328    0.0000 H         1 <0>        0.00000
    116 H29         5.5293   -0.9267    0.0000 H         1 <0>        0.00000
    117 H30         5.4339   -0.1072    0.0000 H         1 <0>        0.00000
    118 H31         5.4339   -0.1072    0.0000 H         1 <0>        0.00000
    119 H32         5.4339   -0.1072    0.0000 H         1 <0>        0.00000
    120 H33         4.8673   -1.4190    0.0000 H         1 <0>        0.00000
    121 H34         4.8673   -1.4190    0.0000 H         1 <0>        0.00000
    122 H35         4.8673   -1.4190    0.0000 H         1 <0>        0.00000
    123 H36         9.4208   -7.5481    0.0000 H         1 <0>        0.00000
    124 H37         8.6948   -7.9400    0.0000 H         1 <0>        0.00000
    125 H38        10.8491   -7.5889    0.0000 H         1 <0>        0.00000
    126 H39        11.5515   -8.0217    0.0000 H         1 <0>        0.00000
    127 H40        11.5279   -8.8463    0.0000 H         1 <0>        0.00000
    128 H41        10.8020   -9.2382    0.0000 H         1 <0>        0.00000
    129 H42        10.0996   -8.8055    0.0000 H         1 <0>        0.00000
    130 H43        16.5153   -4.8582    0.0000 H         1 <0>        0.00000
    131 H44        18.9916   -3.5591    0.0000 H         1 <0>        0.00000
    132 H45        19.0630   -4.3810    0.0000 H         1 <0>        0.00000
    133 H46        19.0630   -4.3810    0.0000 H         1 <0>        0.00000
    134 H47        18.7102   -1.8592    0.0000 H         1 <0>        0.00000
    135 H48        18.7102   -1.8592    0.0000 H         1 <0>        0.00000
    136 H49        18.8112   -1.0404    0.0000 H         1 <0>        0.00000
    137 H50        18.8112   -1.0404    0.0000 H         1 <0>        0.00000
    138 H51        19.6212   -0.8835    0.0000 H         1 <0>        0.00000
    139 H52        19.6212   -0.8835    0.0000 H         1 <0>        0.00000
    140 H53        20.0207   -1.6053    0.0000 H         1 <0>        0.00000
    141 H54        21.3364   -1.0478    0.0000 H         1 <0>        0.00000
    142 H55        21.3364   -1.0478    0.0000 H         1 <0>        0.00000
@<TRIPOS>BOND
     1    1    2 1
     2    2    3 am
     3    3    4 2
     4    3    5 1
     5    5    6 1
     6    6    7 1
     7    7    8 am
     8    8    9 2
     9    8   10 1
    10   10   11 2
    11   11   12 1
    12   12   13 1
    13   13   14 2
    14   10   14 1
    15   13   15 1
    16   15   16 ar
    17   16   17 ar
    18   17   18 ar
    19   18   19 ar
    20   19   20 ar
    21   15   20 ar
    22   20   21 1
    23   21   22 2
    24   22   23 1
    25   23   24 1
    26   24   25 2
    27   21   25 1
    28   24   26 1
    29   26   27 2
    30   27   28 1
    31   28   29 1
    32   29   30 2
    33   26   30 1
    34   29   31 1
    35   31   32 1
    36   32   33 am
    37   33   34 2
    38   33   35 1
    39   35   36 1
    40   36   37 am
    41   37   38 2
    42   37   39 1
    43   39   40 2
    44   40   41 1
    45   41   42 1
    46   42   43 1
    47   40   44 1
    48   44   45 1
    49   45   46 2
    50   39   46 1
    51   45   47 1
    52   47   48 1
    53   48   49 am
    54   49   50 2
    55   49   51 1
    56   51   52 2
    57   52   53 1
    58   52   54 1
    59   54   55 1
    60    6   55 1
    61   55   56 2
    62   51   56 1
    63   47   57 1
    64   57   58 1
    65   57   59 1
    66   31   60 1
    67   60   61 1
    68   60   62 1
    69   62   63 ar
    70   63   64 ar
    71   64   65 ar
    72   65   66 ar
    73   66   67 ar
    74   62   67 ar
    75   18   68 1
    76   68   69 2
    77   69   70 1
    78   70   71 2
    79   71   72 1
    80   68   72 1
    81   70   73 1
    82   73   74 2
    83   74   75 1
    84   75   76 1
    85   76   77 1
    86   73   77 1
    87   75   78 1
    88   78   79 2
    89   78   80 am
    90   80   81 1
    91   81   82 1
    92   82   83 1
    93   83   84 1
    94   80   84 1
    95   84   85 1
    96   85   86 am
    97   85   87 2
    98    1   88 1
    99    1   89 1
   100    1   90 1
   101    2   91 1
   102    5   92 1
   103    5   93 1
   104    6   94 1
   105    7   95 1
   106   11   96 1
   107   16   97 1
   108   17   98 1
   109   22   99 1
   110   27  100 1
   111   31  101 1
   112   32  102 1
   113   35  103 1
   114   35  104 1
   115   36  105 1
   116   41  106 1
   117   41  107 1
   118   43  108 1
   119   43  109 1
   120   43  110 1
   121   47  111 1
   122   48  112 1
   123   53  113 1
   124   53  114 1
   125   53  115 1
   126   57  116 1
   127   58  117 1
   128   58  118 1
   129   58  119 1
   130   59  120 1
   131   59  121 1
   132   59  122 1
   133   60  123 1
   134   61  124 1
   135   63  125 1
   136   64  126 1
   137   65  127 1
   138   66  128 1
   139   67  129 1
   140   71  130 1
   141   75  131 1
   142   76  132 1
   143   76  133 1
   144   81  134 1
   145   81  135 1
   146   82  136 1
   147   82  137 1
   148   83  138 1
   149   83  139 1
   150   84  140 1
   151   86  141 1
   152   86  142 1
@<TRIPOS>SUBSTRUCTURE
     1 <0>         1 GROUP 0 A     ****
@<TRIPOS>MOLECULE
555
   23    24     1     0     0
SMALL
NO_CHARGES

@<TRIPOS>ATOM
      1 Cl1         4.9509    0.9529    0.0000 Cl        1 <0>        0.00000
      2 Cl2         4.9509    2.6029    0.0000 Cl        1 <0>        0.00000
      3 N1          4.2365   -0.2846    0.0000 N.ar      1 <0>        0.00000
      4 N2          2.8075   -1.1096    0.0000 N.ar      1 <0>        0.00000
      5 N3          2.0930    0.1279    0.0000 N.pl3     1 <0>        0.00000
      6 N4          4.2365   -1.1096    0.0000 N.ar      1 <0>        0.00000
      7 N5          3.5220   -2.3472    0.0000 N.pl3     1 <0>        0.00000
      8 C1          3.5220    0.9529    0.0000 C.ar      1 <0>        0.00000
      9 C2          3.5220    0.1279    0.0000 C.ar      1 <0>        0.00000
     10 C3          4.2365    1.3654    0.0000 C.ar      1 <0>        0.00000
     11 C4          2.8075    1.3654    0.0000 C.ar      1 <0>        0.00000
     12 C5          2.8075   -0.2846    0.0000 C.ar      1 <0>        0.00000
     13 C6          4.2365    2.1904    0.0000 C.ar      1 <0>        0.00000
     14 C7          2.8075    2.1904    0.0000 C.ar      1 <0>        0.00000
     15 C8          3.5220    2.6029    0.0000 C.ar      1 <0>        0.00000
     16 C9          3.5220   -1.5222    0.0000 C.ar      1 <0>        0.00000
     17 H1          2.0930    0.1279    0.0000 H         1 <0>        0.00000
     18 H2          2.0930    0.1279    0.0000 H         1 <0>        0.00000
     19 H3          3.5220   -2.3472    0.0000 H         1 <0>        0.00000
     20 H4          3.5220   -2.3472    0.0000 H         1 <0>        0.00000
     21 H5          2.8075    1.3654    0.0000 H         1 <0>        0.00000
     22 H6          2.8075    2.1904    0.0000 H         1 <0>        0.00000
     23 H7          3.5220    2.6029    0.0000 H         1 <0>        0.00000
@<TRIPOS>BOND
     1    1   10 1
     2    2   13 1
     3    3    6 ar
     4    3    9 ar
     5    4   12 ar
     6    4   16 ar
     7    5   12 1
     8    6   16 ar
     9    7   16 1
    10    8    9 1
    11    8   10 ar
    12    8   11 ar
    13    9   12 ar
    14   10   13 ar
    15   11   14 ar
    16   13   15 ar
    17   14   15 ar
    18    5   17 1
    19    5   18 1
    20    7   19 1
    21    7   20 1
    22   11   21 1
    23   14   22 1
    24   15   23 1
@<TRIPOS>SUBSTRUCTURE
     1 <0>         1 GROUP 0 A     ****
@<TRIPOS>MOLECULE
MiniDrugBank_90
   11    10     1     0     0
SMALL
NO_CHARGES

 
@<TRIPOS>ATOM
      1 F1          1.6500    0.0000    0.0000 F         1 <0>        0.00000
      2 C1          0.8250    0.0000    0.0000 C.3       1 <0>        0.00000
      3 C2          0.0000    0.0000    0.0000 C.3       1 <0>        0.00000
      4 C3         -0.8250    0.0000    0.0000 C.3       1 <0>        0.00000
      5 F2         -0.8250    0.8250    0.0000 F         1 <0>        0.00000
      6 F3         -0.8250   -0.8250    0.0000 F         1 <0>        0.00000
      7 F4          0.0000   -0.8250    0.0000 F         1 <0>        0.00000
      8 F5          0.8250   -0.8250    0.0000 F         1 <0>        0.00000
      9 F6          0.8250    0.8250    0.0000 F         1 <0>        0.00000
     10 F7          0.0000    0.8250    0.0000 F         1 <0>        0.00000
     11 F8         -1.6500    0.0000    0.0000 F         1 <0>        0.00000
@<TRIPOS>BOND
     1    4    6 1
     2    1    2 1
     3    3    7 1
     4    3    4 1
     5    2    8 1
     6    2    9 1
     7    4    5 1
     8    3   10 1
     9    2    3 1
    10    4   11 1
@<TRIPOS>SUBSTRUCTURE
     1 <0>         1 GROUP 0 A     ****
@<TRIPOS>MOLECULE
MiniDrugBank_91
   16    17     1     0     0
SMALL
NO_CHARGES

@<TRIPOS>ATOM
      1 C1          0.6411   -0.2854    0.0000 C.ar      1 <0>        0.00000
      2 C2          0.6411   -1.1104    0.0000 C.ar      1 <0>        0.00000
      3 C3          1.3556    0.1271    0.0000 C.ar      1 <0>        0.00000
      4 C4         -0.6284   -0.6979    0.0000 C.ar      1 <0>        0.00000
      5 C5          2.0701   -1.1104    0.0000 C.ar      1 <0>        0.00000
      6 I1         -1.4534   -0.6979    0.0000 I         1 <0>        0.00000
      7 N1          2.7845   -1.5229    0.0000 N.2       1 <0>        0.00000
      8 N2         -0.1435   -0.0305    0.0000 N.ar      1 <0>        0.00000
      9 N3         -0.1435   -1.3654    0.0000 N.pl3     1 <0>        0.00000
     10 N4          1.3556   -1.5229    0.0000 N.pl3     1 <0>        0.00000
     11 N5          2.0701   -0.2854    0.0000 N.ar      1 <0>        0.00000
     12 O1          1.3556    0.9521    0.0000 O.3       1 <0>        0.00000
     13 H1          2.7845   -1.5229    0.0000 H         1 <0>        0.00000
     14 H2         -0.1435   -1.3654    0.0000 H         1 <0>        0.00000
     15 H3          1.3556   -1.5229    0.0000 H         1 <0>        0.00000
     16 H4          1.3556    0.9521    0.0000 H         1 <0>        0.00000
@<TRIPOS>BOND
     1    1    2 2
     2    1    3 1
     3    4    6 1
     4    5    7 2
     5    1    8 1
     6    4    8 2
     7    2    9 1
     8    4    9 1
     9    2   10 1
    10    5   10 1
    11    3   11 2
    12    5   11 1
    13    3   12 1
    14    7   13 1
    15    9   14 1
    16   10   15 1
    17   12   16 1
@<TRIPOS>SUBSTRUCTURE
     1 <0>         1 GROUP 0 A     ****
@<TRIPOS>MOLECULE
TPD
   29    30     1     0     0
SMALL
NO_CHARGES

@<TRIPOS>ATOM
      1 C1         -0.4288    2.3036    0.0000 C.ar      1 <0>        0.00000
      2 C2          0.6981   -1.0284    0.0000 C.3       1 <0>        0.00000
      3 C3          0.6981   -1.8534    0.0000 C.ar      1 <0>        0.00000
      4 C4          1.3656   -2.3383    0.0000 C.ar      1 <0>        0.00000
      5 C5          1.1106   -3.1230    0.0000 C.ar      1 <0>        0.00000
      6 C6          0.2856   -3.1230    0.0000 C.ar      1 <0>        0.00000
      7 O1         -1.3987    3.6385    0.0000 O.2       1 <0>        0.00000
      8 O2         -0.2463    3.4560    0.0000 O.2       1 <0>        0.00000
      9 N1         -1.5812    2.4861    0.0000 N.pl3     1 <0>        0.00000
     10 S1         -0.9138    2.9711    0.0000 S.o2      1 <0>        0.00000
     11 C7          0.3962    2.3036    0.0000 C.ar      1 <0>        0.00000
     12 C8          0.6511    1.5190    0.0000 C.ar      1 <0>        0.00000
     13 C9         -0.0163    1.0341    0.0000 C.ar      1 <0>        0.00000
     14 S2         -0.6838    1.5190    0.0000 S.3       1 <0>        0.00000
     15 S3         -0.0163    0.2091    0.0000 S.o2      1 <0>        0.00000
     16 O3          0.8087    0.2091    0.0000 O.2       1 <0>        0.00000
     17 O4         -0.8413    0.2091    0.0000 O.2       1 <0>        0.00000
     18 N2         -0.0163   -0.6159    0.0000 N.pl3     1 <0>        0.00000
     19 S4          0.0307   -2.3383    0.0000 S.3       1 <0>        0.00000
     20 H1          0.6981   -1.0284    0.0000 H         1 <0>        0.00000
     21 H2          0.6981   -1.0284    0.0000 H         1 <0>        0.00000
     22 H3          1.3656   -2.3383    0.0000 H         1 <0>        0.00000
     23 H4          1.1106   -3.1230    0.0000 H         1 <0>        0.00000
     24 H5          0.2856   -3.1230    0.0000 H         1 <0>        0.00000
     25 H6         -1.5812    2.4861    0.0000 H         1 <0>        0.00000
     26 H7         -1.5812    2.4861    0.0000 H         1 <0>        0.00000
     27 H8          0.3962    2.3036    0.0000 H         1 <0>        0.00000
     28 H9          0.6511    1.5190    0.0000 H         1 <0>        0.00000
     29 H10        -0.0163   -0.6159    0.0000 H         1 <0>        0.00000
@<TRIPOS>BOND
     1    1   10 1
     2    1   11 2
     3    1   14 1
     4    2    3 1
     5    2   18 1
     6    3    4 2
     7    3   19 1
     8    4    5 1
     9    5    6 2
    10    6   19 1
    11    7   10 2
    12    8   10 2
    13    9   10 1
    14   11   12 1
    15   12   13 2
    16   13   14 1
    17   13   15 1
    18   15   16 2
    19   15   17 2
    20   15   18 1
    21    2   20 1
    22    2   21 1
    23    4   22 1
    24    5   23 1
    25    6   24 1
    26    9   25 1
    27    9   26 1
    28   11   27 1
    29   12   28 1
    30   18   29 1
@<TRIPOS>SUBSTRUCTURE
     1 <0>         1 GROUP 0 A     ****
@<TRIPOS>MOLECULE
315
   59    62     1     0     0
SMALL
NO_CHARGES

@<TRIPOS>ATOM
      1 C1         -0.0767   -0.9562    0.0000 C.3       1 <0>        0.00000
      2 C2          0.6378   -1.3687    0.0000 C.3       1 <0>        0.00000
      3 C3          0.6378   -2.1937    0.0000 C.2       1 <0>        0.00000
      4 N1          1.3523   -2.6062    0.0000 N.am      1 <0>        0.00000
      5 O1         -0.0767   -2.6062    0.0000 O.2       1 <0>        0.00000
      6 N2          1.3523   -0.9562    0.0000 N.3       1 <0>        0.00000
      7 C4         -0.7911   -1.3687    0.0000 C.3       1 <0>        0.00000
      8 C5          1.4385   -3.4267    0.0000 C.3       1 <0>        0.00000
      9 C6          2.2455   -3.5982    0.0000 C.3       1 <0>        0.00000
     10 C7          2.6580   -2.8838    0.0000 C.3       1 <0>        0.00000
     11 C8          2.1060   -2.2707    0.0000 C.3       1 <0>        0.00000
     12 F1          2.5811   -4.3519    0.0000 F         1 <0>        0.00000
     13 C9         -1.5056   -0.9562    0.0000 C.3       1 <0>        0.00000
     14 C10        -1.9181   -0.2418    0.0000 C.3       1 <0>        0.00000
     15 C11        -2.3306   -0.9562    0.0000 C.3       1 <0>        0.00000
     16 C12        -0.0767   -0.1312    0.0000 C.3       1 <0>        0.00000
     17 N3         -0.7441    0.3537    0.0000 N.3       1 <0>        0.00000
     18 C13        -0.4892    1.1383    0.0000 C.3       1 <0>        0.00000
     19 N4          0.3358    1.1383    0.0000 N.3       1 <0>        0.00000
     20 O2          0.5908    0.3537    0.0000 O.3       1 <0>        0.00000
     21 C14        -0.9741    1.8058    0.0000 C.ar      1 <0>        0.00000
     22 C15        -1.7946    1.7195    0.0000 C.ar      1 <0>        0.00000
     23 C16        -2.2795    2.3870    0.0000 C.ar      1 <0>        0.00000
     24 C17        -1.9439    3.1406    0.0000 C.ar      1 <0>        0.00000
     25 C18        -1.1234    3.2269    0.0000 C.ar      1 <0>        0.00000
     26 C19        -0.6385    2.5594    0.0000 C.ar      1 <0>        0.00000
     27 F2          0.1820    2.6457    0.0000 F         1 <0>        0.00000
     28 S1         -2.4288    3.8081    0.0000 S.o2      1 <0>        0.00000
     29 O3         -2.9138    4.4755    0.0000 O.2       1 <0>        0.00000
     30 O4         -1.7614    4.2930    0.0000 O.2       1 <0>        0.00000
     31 C20        -3.0963    3.3232    0.0000 C.3       1 <0>        0.00000
     32 H1          0.4290   -0.6643    0.0000 H         1 <0>        0.00000
     33 H2          0.1321   -1.6607    0.0000 H         1 <0>        0.00000
     34 H3          1.8780   -4.0520    0.0000 H         1 <0>        0.00000
     35 H4         -0.5969   -0.3963    0.0000 H         1 <0>        0.00000
     36 H5         -1.0659    1.0470    0.0000 H         1 <0>        0.00000
     37 H6          1.3523   -0.9562    0.0000 H         1 <0>        0.00000
     38 H7          1.3523   -0.9562    0.0000 H         1 <0>        0.00000
     39 H8         -0.7911   -1.3687    0.0000 H         1 <0>        0.00000
     40 H9         -0.7911   -1.3687    0.0000 H         1 <0>        0.00000
     41 H10         1.4385   -3.4267    0.0000 H         1 <0>        0.00000
     42 H11         1.4385   -3.4267    0.0000 H         1 <0>        0.00000
     43 H12         2.6580   -2.8838    0.0000 H         1 <0>        0.00000
     44 H13         2.6580   -2.8838    0.0000 H         1 <0>        0.00000
     45 H14         2.1060   -2.2707    0.0000 H         1 <0>        0.00000
     46 H15         2.1060   -2.2707    0.0000 H         1 <0>        0.00000
     47 H16        -1.5056   -0.9562    0.0000 H         1 <0>        0.00000
     48 H17        -1.9181   -0.2418    0.0000 H         1 <0>        0.00000
     49 H18        -1.9181   -0.2418    0.0000 H         1 <0>        0.00000
     50 H19        -2.3306   -0.9562    0.0000 H         1 <0>        0.00000
     51 H20        -2.3306   -0.9562    0.0000 H         1 <0>        0.00000
     52 H21        -0.7441    0.3537    0.0000 H         1 <0>        0.00000
     53 H22         0.3358    1.1383    0.0000 H         1 <0>        0.00000
     54 H23        -1.7946    1.7195    0.0000 H         1 <0>        0.00000
     55 H24        -2.2795    2.3870    0.0000 H         1 <0>        0.00000
     56 H25        -1.1234    3.2269    0.0000 H         1 <0>        0.00000
     57 H26        -3.0963    3.3232    0.0000 H         1 <0>        0.00000
     58 H27        -3.0963    3.3232    0.0000 H         1 <0>        0.00000
     59 H28        -3.0963    3.3232    0.0000 H         1 <0>        0.00000
@<TRIPOS>BOND
     1    1    2 1
     2    1   16 1
     3    1   32 1
     4    2    3 1
     5    2   33 1
     6    3    4 am
     7    4   11 1
     8    4    8 1
     9    3    5 2
    10    2    6 1
    11    1    7 1
    12    8    9 1
    13    9   12 1
    14    9   34 1
    15    9   10 1
    16   10   11 1
    17    7   13 1
    18   13   14 1
    19   13   15 1
    20   14   15 1
    21   16   17 1
    22   16   20 1
    23   16   35 1
    24   17   18 1
    25   18   19 1
    26   18   21 1
    27   18   36 1
    28   19   20 1
    29   21   22 ar
    30   21   26 ar
    31   22   23 ar
    32   23   24 ar
    33   24   28 1
    34   24   25 ar
    35   25   26 ar
    36   26   27 1
    37   28   30 2
    38   28   29 2
    39   28   31 1
    40    6   37 1
    41    6   38 1
    42    7   39 1
    43    7   40 1
    44    8   41 1
    45    8   42 1
    46   10   43 1
    47   10   44 1
    48   11   45 1
    49   11   46 1
    50   13   47 1
    51   14   48 1
    52   14   49 1
    53   15   50 1
    54   15   51 1
    55   17   52 1
    56   19   53 1
    57   22   54 1
    58   23   55 1
    59   25   56 1
    60   31   57 1
    61   31   58 1
    62   31   59 1
@<TRIPOS>SUBSTRUCTURE
     1 <0>         1 GROUP 0 A     ****
@<TRIPOS>MOLECULE
562
   40    42     1     0     0
SMALL
NO_CHARGES

@<TRIPOS>ATOM
      1 Cl1         9.5636    1.0625    0.0000 Cl        1 <0>        0.00000
      2 S1          6.6513   -0.6074    0.0000 S.o2      1 <0>        0.00000
      3 S2          9.5636   -0.6273    0.0000 S.o2      1 <0>        0.00000
      4 S3          4.5079    0.6301    0.0000 S.3       1 <0>        0.00000
      5 O1          7.0638   -1.3219    0.0000 O.2       1 <0>        0.00000
      6 O2          6.2388   -1.3219    0.0000 O.2       1 <0>        0.00000
      7 O3          9.9789    0.0856    0.0000 O.2       1 <0>        0.00000
      8 O4          9.1484   -1.3402    0.0000 O.2       1 <0>        0.00000
      9 N1          6.6513    1.0426    0.0000 N.pl3     1 <0>        0.00000
     10 N2          5.9369   -0.1949    0.0000 N.ar      1 <0>        0.00000
     11 N3         10.2765   -1.0426    0.0000 N.pl3     1 <0>        0.00000
     12 C1          7.3658   -0.1949    0.0000 C.ar      1 <0>        0.00000
     13 C2          7.3658    0.6301    0.0000 C.ar      1 <0>        0.00000
     14 C3          8.1032   -0.6360    0.0000 C.ar      1 <0>        0.00000
     15 C4          8.8508   -0.2121    0.0000 C.ar      1 <0>        0.00000
     16 C5          5.9369    0.6301    0.0000 C.ar      1 <0>        0.00000
     17 C6          8.1032    1.0712    0.0000 C.ar      1 <0>        0.00000
     18 C7          8.8508    0.6473    0.0000 C.ar      1 <0>        0.00000
     19 C8          5.2223    1.0426    0.0000 C.3       1 <0>        0.00000
     20 C9          3.7934    1.0426    0.0000 C.3       1 <0>        0.00000
     21 C10         3.0790    0.6301    0.0000 C.ar      1 <0>        0.00000
     22 C11         3.0790   -0.1949    0.0000 C.ar      1 <0>        0.00000
     23 C12         2.3644    1.0426    0.0000 C.ar      1 <0>        0.00000
     24 C13         2.3644   -0.6074    0.0000 C.ar      1 <0>        0.00000
     25 C14         1.6500    0.6301    0.0000 C.ar      1 <0>        0.00000
     26 C15         1.6500   -0.1949    0.0000 C.ar      1 <0>        0.00000
     27 H1          6.6513    1.0426    0.0000 H         1 <0>        0.00000
     28 H2         10.2765   -1.0426    0.0000 H         1 <0>        0.00000
     29 H3         10.2765   -1.0426    0.0000 H         1 <0>        0.00000
     30 H4          8.1032   -0.6360    0.0000 H         1 <0>        0.00000
     31 H5          8.1032    1.0712    0.0000 H         1 <0>        0.00000
     32 H6          5.2223    1.0426    0.0000 H         1 <0>        0.00000
     33 H7          5.2223    1.0426    0.0000 H         1 <0>        0.00000
     34 H8          3.7934    1.0426    0.0000 H         1 <0>        0.00000
     35 H9          3.7934    1.0426    0.0000 H         1 <0>        0.00000
     36 H10         3.0790   -0.1949    0.0000 H         1 <0>        0.00000
     37 H11         2.3644    1.0426    0.0000 H         1 <0>        0.00000
     38 H12         2.3644   -0.6074    0.0000 H         1 <0>        0.00000
     39 H13         1.6500    0.6301    0.0000 H         1 <0>        0.00000
     40 H14         1.6500   -0.1949    0.0000 H         1 <0>        0.00000
@<TRIPOS>BOND
     1    1   18 1
     2    2    5 2
     3    2    6 2
     4    2   10 1
     5    2   12 1
     6    3    7 2
     7    3    8 2
     8    3   11 1
     9    3   15 1
    10    4   19 1
    11    4   20 1
    12    9   13 1
    13    9   16 1
    14   10   16 2
    15   12   13 ar
    16   12   14 ar
    17   13   17 ar
    18   14   15 ar
    19   15   18 ar
    20   16   19 1
    21   17   18 ar
    22   20   21 1
    23   21   22 ar
    24   21   23 ar
    25   22   24 ar
    26   23   25 ar
    27   24   26 ar
    28   25   26 ar
    29    9   27 1
    30   11   28 1
    31   11   29 1
    32   14   30 1
    33   17   31 1
    34   19   32 1
    35   19   33 1
    36   20   34 1
    37   20   35 1
    38   22   36 1
    39   23   37 1
    40   24   38 1
    41   25   39 1
    42   26   40 1
@<TRIPOS>SUBSTRUCTURE
     1 <0>         1 GROUP 0 A     ****
@<TRIPOS>MOLECULE
MiniDrugBank_95
   20    20     1     0     0
SMALL
NO_CHARGES

@<TRIPOS>ATOM
      1 N1          1.5783    2.2433    0.0000 N.3       1 <0>        0.00000
      2 C1          2.1913    1.6913    0.0000 C.3       1 <0>        0.00000
      3 C2          2.0198    0.8843    0.0000 C.3       1 <0>        0.00000
      4 N2          1.2352    0.6294    0.0000 N.am      1 <0>        0.00000
      5 O1          0.9803   -0.1553    0.0000 O.3       1 <0>        0.00000
      6 C3          0.1553   -0.1553    0.0000 C.ar      1 <0>        0.00000
      7 O2         -0.3297   -0.8227    0.0000 O.2       1 <0>        0.00000
      8 N3         -0.0997    0.6294    0.0000 N.am      1 <0>        0.00000
      9 C4          0.5678    1.1143    0.0000 C.ar      1 <0>        0.00000
     10 O3          0.5678    1.9393    0.0000 O.2       1 <0>        0.00000
     11 C5          2.9760    1.9462    0.0000 C.2       1 <0>        0.00000
     12 O4          3.1475    2.7532    0.0000 O.3       1 <0>        0.00000
     13 O5          3.5891    1.3942    0.0000 O.2       1 <0>        0.00000
     14 H1          1.5783    2.2433    0.0000 H         1 <0>        0.00000
     15 H2          1.5783    2.2433    0.0000 H         1 <0>        0.00000
     16 H3          2.1913    1.6913    0.0000 H         1 <0>        0.00000
     17 H4          2.0198    0.8843    0.0000 H         1 <0>        0.00000
     18 H5          2.0198    0.8843    0.0000 H         1 <0>        0.00000
     19 H6         -0.0997    0.6294    0.0000 H         1 <0>        0.00000
     20 H7          3.1475    2.7532    0.0000 H         1 <0>        0.00000
@<TRIPOS>BOND
     1    1    2 1
     2    2    3 1
     3    3    4 1
     4    4    5 1
     5    5    6 1
     6    6    7 2
     7    6    8 am
     8    8    9 am
     9    4    9 am
    10    9   10 2
    11    2   11 1
    12   11   12 1
    13   11   13 2
    14    1   14 1
    15    1   15 1
    16    2   16 1
    17    3   17 1
    18    3   18 1
    19    8   19 1
    20   12   20 1
@<TRIPOS>SUBSTRUCTURE
     1 <0>         1 GROUP 0 A     ****
@<TRIPOS>MOLECULE
MiniDrugBank_96
   96    99     1     0     0
SMALL
NO_CHARGES

@<TRIPOS>ATOM
      1 C1        -12.9064   -3.9341    0.0000 C.3       1 <0>        0.00000
      2 C2        -12.1527   -4.2696    0.0000 C.2       1 <0>        0.00000
      3 O1        -12.0665   -5.0901    0.0000 O.2       1 <0>        0.00000
      4 O2        -11.4853   -3.7847    0.0000 O.3       1 <0>        0.00000
      5 C3        -10.7316   -4.1203    0.0000 C.3       1 <0>        0.00000
      6 C4        -10.0641   -3.6354    0.0000 C.3       1 <0>        0.00000
      7 C5         -9.3105   -3.9709    0.0000 C.3       1 <0>        0.00000
      8 C6         -9.1109   -3.1704    0.0000 C.3       1 <0>        0.00000
      9 C7         -8.4875   -4.0285    0.0000 C.3       1 <0>        0.00000
     10 C8         -9.2242   -4.7914    0.0000 C.2       1 <0>        0.00000
     11 C9         -8.4706   -5.1270    0.0000 C.1       1 <0>        0.00000
     12 C10        -7.7169   -5.4625    0.0000 C.2       1 <0>        0.00000
     13 C11        -7.0494   -4.9776    0.0000 C.2       1 <0>        0.00000
     14 C12        -7.1357   -4.1571    0.0000 C.3       1 <0>        0.00000
     15 C13        -6.2958   -5.3131    0.0000 C.2       1 <0>        0.00000
     16 C14        -5.6283   -4.8282    0.0000 C.2       1 <0>        0.00000
     17 C15        -4.8747   -5.1638    0.0000 C.2       1 <0>        0.00000
     18 C16        -4.2072   -4.6789    0.0000 C.2       1 <0>        0.00000
     19 C17        -3.4535   -5.0144    0.0000 C.2       1 <0>        0.00000
     20 C18        -2.7861   -4.5295    0.0000 C.2       1 <0>        0.00000
     21 C19        -2.0324   -4.8651    0.0000 C.2       1 <0>        0.00000
     22 C20        -1.9462   -5.6855    0.0000 C.3       1 <0>        0.00000
     23 C21        -1.3650   -4.3801    0.0000 C.2       1 <0>        0.00000
     24 C22        -1.4512   -3.5596    0.0000 C.ar      1 <0>        0.00000
     25 O3         -2.1657   -3.1471    0.0000 O.3       1 <0>        0.00000
     26 C23        -1.9942   -2.3402    0.0000 C.ar      1 <0>        0.00000
     27 O4         -2.5462   -1.7271    0.0000 O.2       1 <0>        0.00000
     28 C24        -1.1737   -2.2539    0.0000 C.ar      1 <0>        0.00000
     29 C25        -0.7612   -1.5395    0.0000 C.2       1 <0>        0.00000
     30 C26         0.0638   -1.5395    0.0000 C.2       1 <0>        0.00000
     31 C27         0.4763   -0.8250    0.0000 C.3       1 <0>        0.00000
     32 O5         -0.2382   -0.4125    0.0000 O.3       1 <0>        0.00000
     33 C28         0.4763    0.0000    0.0000 C.3       1 <0>        0.00000
     34 C29         0.0638    0.7145    0.0000 C.3       1 <0>        0.00000
     35 C30         1.1908    0.4125    0.0000 C.3       1 <0>        0.00000
     36 C31         1.9053    0.0000    0.0000 C.3       1 <0>        0.00000
     37 O6          2.6197    0.4125    0.0000 O.3       1 <0>        0.00000
     38 C32         1.9053   -0.8250    0.0000 C.3       1 <0>        0.00000
     39 C33         1.1908   -1.2375    0.0000 C.3       1 <0>        0.00000
     40 C34         1.5781   -1.9659    0.0000 C.3       1 <0>        0.00000
     41 C35         0.8035   -1.9659    0.0000 C.3       1 <0>        0.00000
     42 C36        -0.8381   -3.0076    0.0000 C.ar      1 <0>        0.00000
     43 C37        -9.8917   -5.2763    0.0000 C.3       1 <0>        0.00000
     44 C38        -9.2982   -5.8494    0.0000 C.3       1 <0>        0.00000
     45 O7        -10.3530   -5.9603    0.0000 O.3       1 <0>        0.00000
     46 C39       -10.6453   -4.9408    0.0000 C.3       1 <0>        0.00000
     47 H1        -12.9064   -3.9341    0.0000 H         1 <0>        0.00000
     48 H2        -12.9064   -3.9341    0.0000 H         1 <0>        0.00000
     49 H3        -12.9064   -3.9341    0.0000 H         1 <0>        0.00000
     50 H4        -10.7316   -4.1203    0.0000 H         1 <0>        0.00000
     51 H5        -10.0641   -3.6354    0.0000 H         1 <0>        0.00000
     52 H6        -10.0641   -3.6354    0.0000 H         1 <0>        0.00000
     53 H7         -9.1109   -3.1704    0.0000 H         1 <0>        0.00000
     54 H8         -9.1109   -3.1704    0.0000 H         1 <0>        0.00000
     55 H9         -9.1109   -3.1704    0.0000 H         1 <0>        0.00000
     56 H10        -8.4875   -4.0285    0.0000 H         1 <0>        0.00000
     57 H11        -8.4875   -4.0285    0.0000 H         1 <0>        0.00000
     58 H12        -8.4875   -4.0285    0.0000 H         1 <0>        0.00000
     59 H13        -7.7169   -5.4625    0.0000 H         1 <0>        0.00000
     60 H14        -7.1357   -4.1571    0.0000 H         1 <0>        0.00000
     61 H15        -7.1357   -4.1571    0.0000 H         1 <0>        0.00000
     62 H16        -7.1357   -4.1571    0.0000 H         1 <0>        0.00000
     63 H17        -6.2958   -5.3131    0.0000 H         1 <0>        0.00000
     64 H18        -5.6283   -4.8282    0.0000 H         1 <0>        0.00000
     65 H19        -4.8747   -5.1638    0.0000 H         1 <0>        0.00000
     66 H20        -4.2072   -4.6789    0.0000 H         1 <0>        0.00000
     67 H21        -3.4535   -5.0144    0.0000 H         1 <0>        0.00000
     68 H22        -2.7861   -4.5295    0.0000 H         1 <0>        0.00000
     69 H23        -1.9462   -5.6855    0.0000 H         1 <0>        0.00000
     70 H24        -1.9462   -5.6855    0.0000 H         1 <0>        0.00000
     71 H25        -1.9462   -5.6855    0.0000 H         1 <0>        0.00000
     72 H26        -1.3650   -4.3801    0.0000 H         1 <0>        0.00000
     73 H27        -0.7612   -1.5395    0.0000 H         1 <0>        0.00000
     74 H28         0.0638   -1.5395    0.0000 H         1 <0>        0.00000
     75 H29         0.0638    0.7145    0.0000 H         1 <0>        0.00000
     76 H30         0.0638    0.7145    0.0000 H         1 <0>        0.00000
     77 H31         0.0638    0.7145    0.0000 H         1 <0>        0.00000
     78 H32         1.1908    0.4125    0.0000 H         1 <0>        0.00000
     79 H33         1.1908    0.4125    0.0000 H         1 <0>        0.00000
     80 H34         1.9053    0.0000    0.0000 H         1 <0>        0.00000
     81 H35         2.6197    0.4125    0.0000 H         1 <0>        0.00000
     82 H36         1.9053   -0.8250    0.0000 H         1 <0>        0.00000
     83 H37         1.9053   -0.8250    0.0000 H         1 <0>        0.00000
     84 H38         1.5781   -1.9659    0.0000 H         1 <0>        0.00000
     85 H39         1.5781   -1.9659    0.0000 H         1 <0>        0.00000
     86 H40         1.5781   -1.9659    0.0000 H         1 <0>        0.00000
     87 H41         0.8035   -1.9659    0.0000 H         1 <0>        0.00000
     88 H42         0.8035   -1.9659    0.0000 H         1 <0>        0.00000
     89 H43         0.8035   -1.9659    0.0000 H         1 <0>        0.00000
     90 H44        -0.8381   -3.0076    0.0000 H         1 <0>        0.00000
     91 H45        -9.2982   -5.8494    0.0000 H         1 <0>        0.00000
     92 H46        -9.2982   -5.8494    0.0000 H         1 <0>        0.00000
     93 H47        -9.2982   -5.8494    0.0000 H         1 <0>        0.00000
     94 H48       -10.3530   -5.9603    0.0000 H         1 <0>        0.00000
     95 H49       -10.6453   -4.9408    0.0000 H         1 <0>        0.00000
     96 H50       -10.6453   -4.9408    0.0000 H         1 <0>        0.00000
@<TRIPOS>BOND
     1    1    2 1
     2    2    3 2
     3    2    4 1
     4    4    5 1
     5    5    6 1
     6    6    7 1
     7    7    8 1
     8    7    9 1
     9    7   10 1
    10   10   11 2
    11   11   12 2
    12   12   13 1
    13   13   14 1
    14   13   15 2
    15   15   16 1
    16   16   17 2
    17   17   18 1
    18   18   19 2
    19   19   20 1
    20   20   21 2
    21   21   22 1
    22   21   23 1
    23   23   24 2
    24   24   25 1
    25   25   26 1
    26   26   27 2
    27   26   28 1
    28   28   29 1
    29   29   30 2
    30   30   31 1
    31   31   32 1
    32   32   33 1
    33   31   33 1
    34   33   34 1
    35   33   35 1
    36   35   36 1
    37   36   37 1
    38   36   38 1
    39   38   39 1
    40   31   39 1
    41   39   40 1
    42   39   41 1
    43   28   42 2
    44   24   42 1
    45   10   43 1
    46   43   44 1
    47   43   45 1
    48   43   46 1
    49    5   46 1
    50    1   47 1
    51    1   48 1
    52    1   49 1
    53    5   50 1
    54    6   51 1
    55    6   52 1
    56    8   53 1
    57    8   54 1
    58    8   55 1
    59    9   56 1
    60    9   57 1
    61    9   58 1
    62   12   59 1
    63   14   60 1
    64   14   61 1
    65   14   62 1
    66   15   63 1
    67   16   64 1
    68   17   65 1
    69   18   66 1
    70   19   67 1
    71   20   68 1
    72   22   69 1
    73   22   70 1
    74   22   71 1
    75   23   72 1
    76   29   73 1
    77   30   74 1
    78   34   75 1
    79   34   76 1
    80   34   77 1
    81   35   78 1
    82   35   79 1
    83   36   80 1
    84   37   81 1
    85   38   82 1
    86   38   83 1
    87   40   84 1
    88   40   85 1
    89   40   86 1
    90   41   87 1
    91   41   88 1
    92   41   89 1
    93   42   90 1
    94   44   91 1
    95   44   92 1
    96   44   93 1
    97   45   94 1
    98   46   95 1
    99   46   96 1
@<TRIPOS>SUBSTRUCTURE
     1 <0>         1 GROUP 0 A     ****
@<TRIPOS>MOLECULE
MiniDrugBank_97
   13    13     1     0     0
SMALL
NO_CHARGES

@<TRIPOS>ATOM
      1 O1          0.7145   -1.2375    0.0000 O.3       1 <0>        0.00000
      2 C1          0.7145   -0.4125    0.0000 C.ar      1 <0>        0.00000
      3 C2          0.0000    0.0000    0.0000 C.ar      1 <0>        0.00000
      4 C3          0.0000    0.8250    0.0000 C.ar      1 <0>        0.00000
      5 C4          0.7145    1.2375    0.0000 C.ar      1 <0>        0.00000
      6 I1          0.7145    2.0625    0.0000 I         1 <0>        0.00000
      7 C5          1.4289    0.8250    0.0000 C.ar      1 <0>        0.00000
      8 C6          1.4289    0.0000    0.0000 C.ar      1 <0>        0.00000
      9 H1          0.7145   -1.2375    0.0000 H         1 <0>        0.00000
     10 H2          0.0000    0.0000    0.0000 H         1 <0>        0.00000
     11 H3          0.0000    0.8250    0.0000 H         1 <0>        0.00000
     12 H4          1.4289    0.8250    0.0000 H         1 <0>        0.00000
     13 H5          1.4289    0.0000    0.0000 H         1 <0>        0.00000
@<TRIPOS>BOND
     1    1    2 1
     2    2    3 ar
     3    3    4 ar
     4    4    5 ar
     5    5    6 1
     6    5    7 ar
     7    7    8 ar
     8    2    8 ar
     9    1    9 1
    10    3   10 1
    11    4   11 1
    12    7   12 1
    13    8   13 1
@<TRIPOS>SUBSTRUCTURE
     1 <0>         1 GROUP 0 A     ****
@<TRIPOS>MOLECULE
35A
   65    67     1     0     0
SMALL
NO_CHARGES

@<TRIPOS>ATOM
      1 C1         -0.9931    0.7445    0.0000 C.ar      1 <0>        0.00000
      2 C2         -0.6095    0.0141    0.0000 C.ar      1 <0>        0.00000
      3 C3          4.1262    0.0141    0.0000 C.ar      1 <0>        0.00000
      4 C4          3.7426    0.7445    0.0000 C.ar      1 <0>        0.00000
      5 O1          0.2036    2.0313    0.0000 O.3       1 <0>        0.00000
      6 C5         -0.5001    1.6008    0.0000 C.3       1 <0>        0.00000
      7 C6          2.9183    0.7775    0.0000 C.ar      1 <0>        0.00000
      8 C7          2.4877    1.4812    0.0000 C.3       1 <0>        0.00000
      9 C8          1.8206    1.9666    0.0000 C.3       1 <0>        0.00000
     10 C9          3.6855   -0.6833    0.0000 C.ar      1 <0>        0.00000
     11 C10         2.8611   -0.6503    0.0000 C.ar      1 <0>        0.00000
     12 C11         2.4775    0.0800    0.0000 C.ar      1 <0>        0.00000
     13 C12         0.0474   -1.8725    0.0000 C.3       1 <0>        0.00000
     14 C13         0.8495   -2.0657    0.0000 C.3       1 <0>        0.00000
     15 C14         1.6644   -1.9372    0.0000 C.3       1 <0>        0.00000
     16 C15         2.3681   -1.5066    0.0000 C.3       1 <0>        0.00000
     17 C16        -1.0502   -0.6833    0.0000 C.ar      1 <0>        0.00000
     18 C17        -0.6197   -1.3871    0.0000 C.3       1 <0>        0.00000
     19 N1         -1.8746   -0.6503    0.0000 N.ar      1 <0>        0.00000
     20 C18        -1.8174    0.7775    0.0000 C.ar      1 <0>        0.00000
     21 C19        -2.2582    0.0800    0.0000 C.ar      1 <0>        0.00000
     22 N2         -3.0825    0.1130    0.0000 N.pl3     1 <0>        0.00000
     23 S1         -3.5233   -0.5844    0.0000 S.o2      1 <0>        0.00000
     24 C20        -3.9640   -1.2818    0.0000 C.3       1 <0>        0.00000
     25 O2         -4.2207   -0.1436    0.0000 O.2       1 <0>        0.00000
     26 O3         -2.8258   -1.0251    0.0000 O.2       1 <0>        0.00000
     27 C21        -3.4661    0.8434    0.0000 C.3       1 <0>        0.00000
     28 C22         0.8165   -2.8900    0.0000 C.3       1 <0>        0.00000
     29 C23         1.0186    2.1598    0.0000 C.2       1 <0>        0.00000
     30 O4          1.0515    2.9841    0.0000 O.2       1 <0>        0.00000
     31 C24         2.4377    2.5142    0.0000 C.3       1 <0>        0.00000
     32 N3          1.8374    2.7914    0.0000 N.3       1 <0>        0.00000
     33 H1          0.3836   -2.4177    0.0000 H         1 <0>        0.00000
     34 H2         -0.6095    0.0141    0.0000 H         1 <0>        0.00000
     35 H3          4.1262    0.0141    0.0000 H         1 <0>        0.00000
     36 H4          3.7426    0.7445    0.0000 H         1 <0>        0.00000
     37 H5         -0.5001    1.6008    0.0000 H         1 <0>        0.00000
     38 H6         -0.5001    1.6008    0.0000 H         1 <0>        0.00000
     39 H7          2.4877    1.4812    0.0000 H         1 <0>        0.00000
     40 H8          2.4877    1.4812    0.0000 H         1 <0>        0.00000
     41 H9          3.6855   -0.6833    0.0000 H         1 <0>        0.00000
     42 H10         2.4775    0.0800    0.0000 H         1 <0>        0.00000
     43 H11         0.0474   -1.8725    0.0000 H         1 <0>        0.00000
     44 H12         0.0474   -1.8725    0.0000 H         1 <0>        0.00000
     45 H13         1.6644   -1.9372    0.0000 H         1 <0>        0.00000
     46 H14         1.6644   -1.9372    0.0000 H         1 <0>        0.00000
     47 H15         2.3681   -1.5066    0.0000 H         1 <0>        0.00000
     48 H16         2.3681   -1.5066    0.0000 H         1 <0>        0.00000
     49 H17        -0.6197   -1.3871    0.0000 H         1 <0>        0.00000
     50 H18        -0.6197   -1.3871    0.0000 H         1 <0>        0.00000
     51 H19        -1.8174    0.7775    0.0000 H         1 <0>        0.00000
     52 H20        -3.9640   -1.2818    0.0000 H         1 <0>        0.00000
     53 H21        -3.9640   -1.2818    0.0000 H         1 <0>        0.00000
     54 H22        -3.9640   -1.2818    0.0000 H         1 <0>        0.00000
     55 H23        -3.4661    0.8434    0.0000 H         1 <0>        0.00000
     56 H24        -3.4661    0.8434    0.0000 H         1 <0>        0.00000
     57 H25        -3.4661    0.8434    0.0000 H         1 <0>        0.00000
     58 H26         0.8165   -2.8900    0.0000 H         1 <0>        0.00000
     59 H27         0.8165   -2.8900    0.0000 H         1 <0>        0.00000
     60 H28         0.8165   -2.8900    0.0000 H         1 <0>        0.00000
     61 H29         2.4377    2.5142    0.0000 H         1 <0>        0.00000
     62 H30         2.4377    2.5142    0.0000 H         1 <0>        0.00000
     63 H31         2.4377    2.5142    0.0000 H         1 <0>        0.00000
     64 H32         1.8374    2.7914    0.0000 H         1 <0>        0.00000
     65 H33         1.8374    2.7914    0.0000 H         1 <0>        0.00000
@<TRIPOS>BOND
     1    1   20 ar
     2    1    6 1
     3    1    2 ar
     4    2   17 ar
     5    3    4 ar
     6    3   10 ar
     7    4    7 ar
     8    5    6 1
     9    5   29 1
    10    7    8 1
    11    7   12 ar
    12    8    9 1
    13    9   29 1
    14    9   31 1
    15    9   32 1
    16   10   11 ar
    17   11   12 ar
    18   11   16 1
    19   13   18 1
    20   13   14 1
    21   14   15 1
    22   14   28 1
    23   14   33 1
    24   15   16 1
    25   17   19 ar
    26   17   18 1
    27   19   21 ar
    28   20   21 ar
    29   21   22 1
    30   22   27 1
    31   22   23 1
    32   23   24 1
    33   23   25 2
    34   23   26 2
    35   29   30 2
    36    2   34 1
    37    3   35 1
    38    4   36 1
    39    6   37 1
    40    6   38 1
    41    8   39 1
    42    8   40 1
    43   10   41 1
    44   12   42 1
    45   13   43 1
    46   13   44 1
    47   15   45 1
    48   15   46 1
    49   16   47 1
    50   16   48 1
    51   18   49 1
    52   18   50 1
    53   20   51 1
    54   24   52 1
    55   24   53 1
    56   24   54 1
    57   27   55 1
    58   27   56 1
    59   27   57 1
    60   28   58 1
    61   28   59 1
    62   28   60 1
    63   31   61 1
    64   31   62 1
    65   31   63 1
    66   32   64 1
    67   32   65 1
@<TRIPOS>SUBSTRUCTURE
     1 <0>         1 GROUP 0 A     ****
@<TRIPOS>MOLECULE
MiniDrugBank_99
   42    42     1     0     0
SMALL
NO_CHARGES

@<TRIPOS>ATOM
      1 C1         -1.3246   -1.6195    0.0000 C.3       1 <0>        0.00000
      2 S1         -0.5793   -1.2055    0.0000 S.3       1 <0>        0.00000
      3 C2          0.1246   -1.6195    0.0000 C.3       1 <0>        0.00000
      4 C3          0.8284   -1.2055    0.0000 C.3       1 <0>        0.00000
      5 N1          1.5737   -1.6195    0.0000 N.pl3     1 <0>        0.00000
      6 C4          2.2777   -1.2055    0.0000 C.2       1 <0>        0.00000
      7 C5         -2.0285   -1.2055    0.0000 C.ar      1 <0>        0.00000
      8 N2         -2.0285   -0.3773    0.0000 N.ar      1 <0>        0.00000
      9 C6         -2.8152   -0.1289    0.0000 C.ar      1 <0>        0.00000
     10 S2         -3.3121   -0.7914    0.0000 S.3       1 <0>        0.00000
     11 C7         -2.8152   -1.4538    0.0000 C.ar      1 <0>        0.00000
     12 C8         -3.0636    0.6578    0.0000 C.3       1 <0>        0.00000
     13 C9          3.0231   -1.6195    0.0000 C.2       1 <0>        0.00000
     14 N3         -3.8722    0.8366    0.0000 N.3       1 <0>        0.00000
     15 C10        -4.4468    0.2089    0.0000 C.3       1 <0>        0.00000
     16 C11        -4.1198    1.6195    0.0000 C.3       1 <0>        0.00000
     17 N4          3.7332   -1.1937    0.0000 N.pl3     1 <0>        0.00000
     18 O1          3.7197   -0.3656    0.0000 O.2       1 <0>        0.00000
     19 O2          4.4468   -1.5903    0.0000 O.3       1 <0>        0.00000
     20 N5          2.3091   -0.3880    0.0000 N.pl3     1 <0>        0.00000
     21 C12         1.5947    0.0621    0.0000 C.3       1 <0>        0.00000
     22 H1         -1.3246   -1.6195    0.0000 H         1 <0>        0.00000
     23 H2         -1.3246   -1.6195    0.0000 H         1 <0>        0.00000
     24 H3          0.1246   -1.6195    0.0000 H         1 <0>        0.00000
     25 H4          0.1246   -1.6195    0.0000 H         1 <0>        0.00000
     26 H5          0.8284   -1.2055    0.0000 H         1 <0>        0.00000
     27 H6          0.8284   -1.2055    0.0000 H         1 <0>        0.00000
     28 H7          1.5737   -1.6195    0.0000 H         1 <0>        0.00000
     29 H8         -2.8152   -1.4538    0.0000 H         1 <0>        0.00000
     30 H9         -3.0636    0.6578    0.0000 H         1 <0>        0.00000
     31 H10        -3.0636    0.6578    0.0000 H         1 <0>        0.00000
     32 H11         3.0231   -1.6195    0.0000 H         1 <0>        0.00000
     33 H12        -4.4468    0.2089    0.0000 H         1 <0>        0.00000
     34 H13        -4.4468    0.2089    0.0000 H         1 <0>        0.00000
     35 H14        -4.4468    0.2089    0.0000 H         1 <0>        0.00000
     36 H15        -4.1198    1.6195    0.0000 H         1 <0>        0.00000
     37 H16        -4.1198    1.6195    0.0000 H         1 <0>        0.00000
     38 H17        -4.1198    1.6195    0.0000 H         1 <0>        0.00000
     39 H18         2.3091   -0.3880    0.0000 H         1 <0>        0.00000
     40 H19         1.5947    0.0621    0.0000 H         1 <0>        0.00000
     41 H20         1.5947    0.0621    0.0000 H         1 <0>        0.00000
     42 H21         1.5947    0.0621    0.0000 H         1 <0>        0.00000
@<TRIPOS>BOND
     1    1    2 1
     2    2    3 1
     3    3    4 1
     4    4    5 1
     5    5    6 1
     6    1    7 1
     7    7    8 1
     8    8    9 2
     9    9   10 1
    10   10   11 1
    11    7   11 2
    12    9   12 1
    13    6   13 2
    14   12   14 1
    15   14   15 1
    16   14   16 1
    17   13   17 1
    18   17   18 2
    19   17   19 1
    20    6   20 1
    21   20   21 1
    22    1   22 1
    23    1   23 1
    24    3   24 1
    25    3   25 1
    26    4   26 1
    27    4   27 1
    28    5   28 1
    29   11   29 1
    30   12   30 1
    31   12   31 1
    32   13   32 1
    33   15   33 1
    34   15   34 1
    35   15   35 1
    36   16   36 1
    37   16   37 1
    38   16   38 1
    39   20   39 1
    40   21   40 1
    41   21   41 1
    42   21   42 1
@<TRIPOS>SUBSTRUCTURE
     1 <0>         1 GROUP 0 A     ****
@<TRIPOS>MOLECULE
371
   45    48     1     0     0
SMALL
NO_CHARGES

@<TRIPOS>ATOM
      1 O1         -0.1050   -2.3389    0.0000 O.3       1 <0>        0.00000
      2 C1         -0.8195   -2.7514    0.0000 C.ar      1 <0>        0.00000
      3 C2         -0.8195   -3.5764    0.0000 C.ar      1 <0>        0.00000
      4 C3         -0.1050   -3.9889    0.0000 C.ar      1 <0>        0.00000
      5 C4          1.3239   -3.9889    0.0000 C.ar      1 <0>        0.00000
      6 C5          2.0384   -3.5764    0.0000 C.ar      1 <0>        0.00000
      7 C6          2.0384   -2.7514    0.0000 C.ar      1 <0>        0.00000
      8 C7          1.3239   -2.3389    0.0000 C.ar      1 <0>        0.00000
      9 C8          0.6094   -2.7514    0.0000 C.ar      1 <0>        0.00000
     10 C9          0.6094   -3.5764    0.0000 C.ar      1 <0>        0.00000
     11 O2         -0.1050   -4.8139    0.0000 O.2       1 <0>        0.00000
     12 C10        -1.5340   -2.3389    0.0000 C.ar      1 <0>        0.00000
     13 C11        -2.2484   -2.7514    0.0000 C.ar      1 <0>        0.00000
     14 C12        -2.9629   -2.3389    0.0000 C.ar      1 <0>        0.00000
     15 C13        -2.9629   -1.5139    0.0000 C.ar      1 <0>        0.00000
     16 C14        -2.2484   -1.1014    0.0000 C.ar      1 <0>        0.00000
     17 C15        -1.5340   -1.5139    0.0000 C.ar      1 <0>        0.00000
     18 C16         2.7529   -3.9889    0.0000 C.3       1 <0>        0.00000
     19 O3         -1.5340   -3.9889    0.0000 O.3       1 <0>        0.00000
     20 O4         -2.2484   -0.2764    0.0000 O.3       1 <0>        0.00000
     21 O5         -3.6774   -1.1014    0.0000 O.3       1 <0>        0.00000
     22 C17         0.9114   -0.2443    0.0000 C.3       1 <0>        0.00000
     23 C18         0.6565   -1.0289    0.0000 C.3       1 <0>        0.00000
     24 N1          1.3239   -1.5139    0.0000 N.pl3     1 <0>        0.00000
     25 S1          1.9914   -1.0289    0.0000 S.o2      1 <0>        0.00000
     26 C19         1.7364   -0.2443    0.0000 C.3       1 <0>        0.00000
     27 O6          2.5498   -1.6362    0.0000 O.2       1 <0>        0.00000
     28 O7          2.8001   -0.8659    0.0000 O.2       1 <0>        0.00000
     29 H1          1.3239   -3.9889    0.0000 H         1 <0>        0.00000
     30 H2          2.0384   -2.7514    0.0000 H         1 <0>        0.00000
     31 H3         -2.2484   -2.7514    0.0000 H         1 <0>        0.00000
     32 H4         -2.9629   -2.3389    0.0000 H         1 <0>        0.00000
     33 H5         -1.5340   -1.5139    0.0000 H         1 <0>        0.00000
     34 H6          2.7529   -3.9889    0.0000 H         1 <0>        0.00000
     35 H7          2.7529   -3.9889    0.0000 H         1 <0>        0.00000
     36 H8          2.7529   -3.9889    0.0000 H         1 <0>        0.00000
     37 H9         -1.5340   -3.9889    0.0000 H         1 <0>        0.00000
     38 H10        -2.2484   -0.2764    0.0000 H         1 <0>        0.00000
     39 H11        -3.6774   -1.1014    0.0000 H         1 <0>        0.00000
     40 H12         0.9114   -0.2443    0.0000 H         1 <0>        0.00000
     41 H13         0.9114   -0.2443    0.0000 H         1 <0>        0.00000
     42 H14         0.6565   -1.0289    0.0000 H         1 <0>        0.00000
     43 H15         0.6565   -1.0289    0.0000 H         1 <0>        0.00000
     44 H16         1.7364   -0.2443    0.0000 H         1 <0>        0.00000
     45 H17         1.7364   -0.2443    0.0000 H         1 <0>        0.00000
@<TRIPOS>BOND
     1    1    2 1
     2    1    9 1
     3    2   12 1
     4    2    3 2
     5    3   19 1
     6    3    4 1
     7    4   10 1
     8    4   11 2
     9    5   10 ar
    10    5    6 ar
    11    6    7 ar
    12    6   18 1
    13    7    8 ar
    14    8   24 1
    15    8    9 ar
    16    9   10 ar
    17   12   13 ar
    18   12   17 ar
    19   13   14 ar
    20   14   15 ar
    21   15   21 1
    22   15   16 ar
    23   16   20 1
    24   16   17 ar
    25   22   26 1
    26   22   23 1
    27   23   24 1
    28   24   25 1
    29   25   26 1
    30   25   27 2
    31   25   28 2
    32    5   29 1
    33    7   30 1
    34   13   31 1
    35   14   32 1
    36   17   33 1
    37   18   34 1
    38   18   35 1
    39   18   36 1
    40   19   37 1
    41   20   38 1
    42   21   39 1
    43   22   40 1
    44   22   41 1
    45   23   42 1
    46   23   43 1
    47   26   44 1
    48   26   45 1
@<TRIPOS>SUBSTRUCTURE
     1 <0>         1 GROUP 0 A     ****
@<TRIPOS>MOLECULE
186
   31    33     1     0     0
SMALL
NO_CHARGES

@<TRIPOS>ATOM
      1 Cl1         2.5467   -2.3783    0.0000 Cl        1 <0>        0.00000
      2 Cl2         3.6080   -1.4841    0.0000 Cl        1 <0>        0.00000
      3 O1          3.8811    2.3401    0.0000 O.3       1 <0>        0.00000
      4 O2          2.3403    2.3401    0.0000 O.2       1 <0>        0.00000
      5 N1          2.1838    0.9518    0.0000 N.am      1 <0>        0.00000
      6 N2          4.0375    0.9518    0.0000 N.2       1 <0>        0.00000
      7 C1          3.1106   -0.2105    0.0000 C.ar      1 <0>        0.00000
      8 C2          3.8540    0.1475    0.0000 C.2       1 <0>        0.00000
      9 C3          2.3674    0.1475    0.0000 C.ar      1 <0>        0.00000
     10 C4          4.4989   -0.3669    0.0000 C.ar      1 <0>        0.00000
     11 C5          3.5231    1.5968    0.0000 C.3       1 <0>        0.00000
     12 C6          3.1881   -1.0663    0.0000 C.ar      1 <0>        0.00000
     13 C7          2.6981    1.5968    0.0000 C.2       1 <0>        0.00000
     14 C8          1.6500   -0.3256    0.0000 C.ar      1 <0>        0.00000
     15 C9          2.4818   -1.5559    0.0000 C.ar      1 <0>        0.00000
     16 C10         1.7076   -1.1830    0.0000 C.ar      1 <0>        0.00000
     17 C11         4.3760   -1.1827    0.0000 C.ar      1 <0>        0.00000
     18 C12         5.2669   -0.0655    0.0000 C.ar      1 <0>        0.00000
     19 C13         5.0210   -1.6971    0.0000 C.ar      1 <0>        0.00000
     20 C14         5.9120   -0.5799    0.0000 C.ar      1 <0>        0.00000
     21 C15         5.7890   -1.3956    0.0000 C.ar      1 <0>        0.00000
     22 H1          3.8811    2.3401    0.0000 H         1 <0>        0.00000
     23 H2          2.1838    0.9518    0.0000 H         1 <0>        0.00000
     24 H3          3.5231    1.5968    0.0000 H         1 <0>        0.00000
     25 H4          3.1881   -1.0663    0.0000 H         1 <0>        0.00000
     26 H5          1.6500   -0.3256    0.0000 H         1 <0>        0.00000
     27 H6          1.7076   -1.1830    0.0000 H         1 <0>        0.00000
     28 H7          5.2669   -0.0655    0.0000 H         1 <0>        0.00000
     29 H8          5.0210   -1.6971    0.0000 H         1 <0>        0.00000
     30 H9          5.9120   -0.5799    0.0000 H         1 <0>        0.00000
     31 H10         5.7890   -1.3956    0.0000 H         1 <0>        0.00000
@<TRIPOS>BOND
     1    1   15 1
     2    2   17 1
     3    3   11 1
     4    4   13 2
     5    5    9 1
     6    5   13 am
     7    6    8 2
     8    6   11 1
     9    7    8 1
    10    7    9 ar
    11    7   12 ar
    12    8   10 1
    13    9   14 ar
    14   10   17 ar
    15   10   18 ar
    16   11   13 1
    17   12   15 ar
    18   14   16 ar
    19   15   16 ar
    20   17   19 ar
    21   18   20 ar
    22   19   21 ar
    23   20   21 ar
    24    3   22 1
    25    5   23 1
    26   11   24 1
    27   12   25 1
    28   14   26 1
    29   16   27 1
    30   18   28 1
    31   19   29 1
    32   20   30 1
    33   21   31 1
@<TRIPOS>SUBSTRUCTURE
     1 <0>         1 GROUP 0 A     ****
@<TRIPOS>MOLECULE
3AC
   37    38     1     0     0
SMALL
NO_CHARGES

@<TRIPOS>ATOM
      1 O1          1.2750    0.9639    0.0000 O.3       1 <0>        0.00000
      2 C1          1.2750    0.1389    0.0000 C.ar      1 <0>        0.00000
      3 C2          1.9894   -0.2736    0.0000 C.ar      1 <0>        0.00000
      4 I1          2.7039    0.1389    0.0000 I         1 <0>        0.00000
      5 C3          1.9894   -1.0986    0.0000 C.ar      1 <0>        0.00000
      6 O2          2.7039   -1.5111    0.0000 O.2       1 <0>        0.00000
      7 N1          1.2750   -1.5111    0.0000 N.am      1 <0>        0.00000
      8 C4          0.5605   -1.0986    0.0000 C.ar      1 <0>        0.00000
      9 C5         -0.1540   -1.5111    0.0000 C.3       1 <0>        0.00000
     10 C6          0.5605   -0.2736    0.0000 C.ar      1 <0>        0.00000
     11 C7         -0.1540    0.1389    0.0000 C.3       1 <0>        0.00000
     12 C8         -0.8685   -0.2736    0.0000 C.3       1 <0>        0.00000
     13 C9          0.5605    1.3764    0.0000 C.ar      1 <0>        0.00000
     14 C10        -0.1540    0.9639    0.0000 C.ar      1 <0>        0.00000
     15 C11        -0.8685    1.3764    0.0000 C.ar      1 <0>        0.00000
     16 C12        -0.8685    2.2014    0.0000 C.ar      1 <0>        0.00000
     17 C13        -0.1540    2.6139    0.0000 C.ar      1 <0>        0.00000
     18 C14         0.5605    2.2014    0.0000 C.ar      1 <0>        0.00000
     19 C15        -0.1540    3.4389    0.0000 C.2       1 <0>        0.00000
     20 C16         0.5605    3.8514    0.0000 C.2       1 <0>        0.00000
     21 N2          0.5605    5.5014    0.0000 N.1       1 <0>        0.00000
     22 C17         0.5605    4.6764    0.0000 C.1       1 <0>        0.00000
     23 H1          1.2750   -1.5111    0.0000 H         1 <0>        0.00000
     24 H2         -0.1540   -1.5111    0.0000 H         1 <0>        0.00000
     25 H3         -0.1540   -1.5111    0.0000 H         1 <0>        0.00000
     26 H4         -0.1540   -1.5111    0.0000 H         1 <0>        0.00000
     27 H5         -0.1540    0.1389    0.0000 H         1 <0>        0.00000
     28 H6         -0.1540    0.1389    0.0000 H         1 <0>        0.00000
     29 H7         -0.8685   -0.2736    0.0000 H         1 <0>        0.00000
     30 H8         -0.8685   -0.2736    0.0000 H         1 <0>        0.00000
     31 H9         -0.8685   -0.2736    0.0000 H         1 <0>        0.00000
     32 H10        -0.1540    0.9639    0.0000 H         1 <0>        0.00000
     33 H11        -0.8685    1.3764    0.0000 H         1 <0>        0.00000
     34 H12        -0.8685    2.2014    0.0000 H         1 <0>        0.00000
     35 H13         0.5605    2.2014    0.0000 H         1 <0>        0.00000
     36 H14        -0.1540    3.4389    0.0000 H         1 <0>        0.00000
     37 H15         0.5605    3.8514    0.0000 H         1 <0>        0.00000
@<TRIPOS>BOND
     1    1    2 1
     2    1   13 1
     3    2    3 2
     4    2   10 1
     5    3    4 1
     6    3    5 1
     7    5    6 2
     8    5    7 am
     9    7    8 1
    10    8    9 1
    11    8   10 2
    12   10   11 1
    13   11   12 1
    14   13   14 ar
    15   13   18 ar
    16   14   15 ar
    17   15   16 ar
    18   16   17 ar
    19   17   18 ar
    20   17   19 1
    21   19   20 2
    22   20   22 1
    23   21   22 3
    24    7   23 1
    25    9   24 1
    26    9   25 1
    27    9   26 1
    28   11   27 1
    29   11   28 1
    30   12   29 1
    31   12   30 1
    32   12   31 1
    33   14   32 1
    34   15   33 1
    35   16   34 1
    36   18   35 1
    37   19   36 1
    38   20   37 1
@<TRIPOS>SUBSTRUCTURE
     1 <0>         1 GROUP 0 A     ****
@<TRIPOS>MOLECULE
UI3
   40    42     1     0     0
SMALL
NO_CHARGES

@<TRIPOS>ATOM
      1 C1         -1.3014   -1.5169    0.0000 C.ar      1 <0>        0.00000
      2 C2         -0.5869   -1.9294    0.0000 C.ar      1 <0>        0.00000
      3 C3          0.1275   -1.5169    0.0000 C.ar      1 <0>        0.00000
      4 C4          0.1275   -0.6919    0.0000 C.ar      1 <0>        0.00000
      5 C5         -0.5869   -0.2794    0.0000 C.ar      1 <0>        0.00000
      6 C6         -1.3014   -0.6919    0.0000 C.ar      1 <0>        0.00000
      7 C7          0.8420   -1.9294    0.0000 C.ar      1 <0>        0.00000
      8 C8          1.5565   -1.5169    0.0000 C.ar      1 <0>        0.00000
      9 C9          1.5565   -0.6919    0.0000 C.ar      1 <0>        0.00000
     10 C10         0.8420   -0.2794    0.0000 C.ar      1 <0>        0.00000
     11 C11         2.2710   -0.2794    0.0000 C.2       1 <0>        0.00000
     12 N1          2.9854   -0.6919    0.0000 N.2       1 <0>        0.00000
     13 N2          2.2710    0.5456    0.0000 N.pl3     1 <0>        0.00000
     14 O1         -2.0159   -0.2794    0.0000 O.3       1 <0>        0.00000
     15 C12        -2.0159    0.5456    0.0000 C.3       1 <0>        0.00000
     16 C13        -0.5869    0.5456    0.0000 C.ar      1 <0>        0.00000
     17 C14        -1.2544    1.0305    0.0000 C.ar      1 <0>        0.00000
     18 N3         -0.9994    1.8151    0.0000 N.pl3     1 <0>        0.00000
     19 N4         -0.1744    1.8151    0.0000 N.ar      1 <0>        0.00000
     20 C15         0.0805    1.0305    0.0000 C.ar      1 <0>        0.00000
     21 S1         -1.4843    2.4826    0.0000 S.o2      1 <0>        0.00000
     22 O2         -1.9693    3.1500    0.0000 O.2       1 <0>        0.00000
     23 O3         -0.8169    2.9675    0.0000 O.2       1 <0>        0.00000
     24 C16        -2.1518    1.9976    0.0000 C.3       1 <0>        0.00000
     25 H1         -1.3014   -1.5169    0.0000 H         1 <0>        0.00000
     26 H2         -0.5869   -1.9294    0.0000 H         1 <0>        0.00000
     27 H3          0.8420   -1.9294    0.0000 H         1 <0>        0.00000
     28 H4          1.5565   -1.5169    0.0000 H         1 <0>        0.00000
     29 H5          0.8420   -0.2794    0.0000 H         1 <0>        0.00000
     30 H6          2.9854   -0.6919    0.0000 H         1 <0>        0.00000
     31 H7          2.2710    0.5456    0.0000 H         1 <0>        0.00000
     32 H8          2.2710    0.5456    0.0000 H         1 <0>        0.00000
     33 H9         -2.0159    0.5456    0.0000 H         1 <0>        0.00000
     34 H10        -2.0159    0.5456    0.0000 H         1 <0>        0.00000
     35 H11        -2.0159    0.5456    0.0000 H         1 <0>        0.00000
     36 H12        -1.2544    1.0305    0.0000 H         1 <0>        0.00000
     37 H13         0.0805    1.0305    0.0000 H         1 <0>        0.00000
     38 H14        -2.1518    1.9976    0.0000 H         1 <0>        0.00000
     39 H15        -2.1518    1.9976    0.0000 H         1 <0>        0.00000
     40 H16        -2.1518    1.9976    0.0000 H         1 <0>        0.00000
@<TRIPOS>BOND
     1    1    2 ar
     2    1    6 ar
     3    2    3 ar
     4    3    4 ar
     5    3    7 ar
     6    4    5 ar
     7    4   10 ar
     8    5    6 ar
     9    5   16 1
    10    6   14 1
    11    7    8 ar
    12    8    9 ar
    13    9   10 ar
    14    9   11 1
    15   11   12 2
    16   11   13 1
    17   14   15 1
    18   16   17 2
    19   16   20 1
    20   17   18 1
    21   18   19 1
    22   18   21 1
    23   19   20 2
    24   21   22 2
    25   21   23 2
    26   21   24 1
    27    1   25 1
    28    2   26 1
    29    7   27 1
    30    8   28 1
    31   10   29 1
    32   12   30 1
    33   13   31 1
    34   13   32 1
    35   15   33 1
    36   15   34 1
    37   15   35 1
    38   17   36 1
    39   20   37 1
    40   24   38 1
    41   24   39 1
    42   24   40 1
@<TRIPOS>SUBSTRUCTURE
     1 <0>         1 GROUP 0 A     ****
@<TRIPOS>MOLECULE
3BM
   40    41     1     0     0
SMALL
NO_CHARGES

@<TRIPOS>ATOM
      1 C1         -2.9234   -0.9946    0.0000 C.ar      1 <0>        0.00000
      2 C2         -3.6379   -0.5821    0.0000 C.ar      1 <0>        0.00000
      3 C3         -4.3524   -0.9946    0.0000 C.ar      1 <0>        0.00000
      4 C4         -4.3524   -1.8196    0.0000 C.ar      1 <0>        0.00000
      5 C5         -3.6379   -2.2321    0.0000 C.ar      1 <0>        0.00000
      6 C6         -2.9234   -1.8196    0.0000 C.ar      1 <0>        0.00000
      7 N1         -2.2090   -0.5821    0.0000 N.pl3     1 <0>        0.00000
      8 C7         -2.2090    0.2429    0.0000 C.ar      1 <0>        0.00000
      9 C8         -1.4945    0.6554    0.0000 C.ar      1 <0>        0.00000
     10 C9         -1.4945    1.4804    0.0000 C.ar      1 <0>        0.00000
     11 C10        -2.2090    1.8929    0.0000 C.ar      1 <0>        0.00000
     12 C11        -2.9234    1.4804    0.0000 C.ar      1 <0>        0.00000
     13 C12        -2.9234    0.6554    0.0000 C.ar      1 <0>        0.00000
     14 C13        -0.7800    0.2429    0.0000 C.2       1 <0>        0.00000
     15 N2         -0.0656    0.6554    0.0000 N.am      1 <0>        0.00000
     16 O1         -0.7800   -0.5821    0.0000 O.2       1 <0>        0.00000
     17 O2          0.6489    0.2429    0.0000 O.3       1 <0>        0.00000
     18 C14         1.3634    0.6554    0.0000 C.3       1 <0>        0.00000
     19 C15         2.0778    0.2429    0.0000 C.3       1 <0>        0.00000
     20 C16         2.7923    0.6554    0.0000 C.3       1 <0>        0.00000
     21 O3          2.0778   -0.5821    0.0000 O.3       1 <0>        0.00000
     22 O4          3.5068    0.2429    0.0000 O.3       1 <0>        0.00000
     23 I1         -5.0669   -2.2321    0.0000 I         1 <0>        0.00000
     24 Cl1        -2.2090   -2.2321    0.0000 Cl        1 <0>        0.00000
     25 F1         -3.6379    0.2429    0.0000 F         1 <0>        0.00000
     26 F2         -3.6379    1.8929    0.0000 F         1 <0>        0.00000
     27 H1          2.0778    0.8268    0.0000 H         1 <0>        0.00000
     28 H2         -3.6379   -0.5821    0.0000 H         1 <0>        0.00000
     29 H3         -4.3524   -0.9946    0.0000 H         1 <0>        0.00000
     30 H4         -3.6379   -2.2321    0.0000 H         1 <0>        0.00000
     31 H5         -2.2090   -0.5821    0.0000 H         1 <0>        0.00000
     32 H6         -1.4945    1.4804    0.0000 H         1 <0>        0.00000
     33 H7         -2.2090    1.8929    0.0000 H         1 <0>        0.00000
     34 H8         -0.0656    0.6554    0.0000 H         1 <0>        0.00000
     35 H9          1.3634    0.6554    0.0000 H         1 <0>        0.00000
     36 H10         1.3634    0.6554    0.0000 H         1 <0>        0.00000
     37 H11         2.7923    0.6554    0.0000 H         1 <0>        0.00000
     38 H12         2.7923    0.6554    0.0000 H         1 <0>        0.00000
     39 H13         2.0778   -0.5821    0.0000 H         1 <0>        0.00000
     40 H14         3.5068    0.2429    0.0000 H         1 <0>        0.00000
@<TRIPOS>BOND
     1    1    7 1
     2    1    6 ar
     3    1    2 ar
     4    2    3 ar
     5    3    4 ar
     6    4    5 ar
     7    5    6 ar
     8    6   24 1
     9    7    8 1
    10    8    9 ar
    11    9   14 1
    12    9   10 ar
    13   10   11 ar
    14   11   12 ar
    15   12   13 ar
    16    8   13 ar
    17   13   25 1
    18   14   16 2
    19   14   15 am
    20   15   17 1
    21   17   18 1
    22   18   19 1
    23   19   20 1
    24   19   21 1
    25   19   27 1
    26   20   22 1
    27    4   23 1
    28   12   26 1
    29    2   28 1
    30    3   29 1
    31    5   30 1
    32    7   31 1
    33   10   32 1
    34   11   33 1
    35   15   34 1
    36   18   35 1
    37   18   36 1
    38   20   37 1
    39   20   38 1
    40   21   39 1
    41   22   40 1
@<TRIPOS>SUBSTRUCTURE
     1 <0>         1 GROUP 0 A     ****
@<TRIPOS>MOLECULE
MiniDrugBank_105
  123   128     1     0     0
SMALL
NO_CHARGES

@<TRIPOS>ATOM
      1 C1         15.4059  -12.0930    0.0000 C.3       1 <0>        0.00000
      2 C2         15.4016  -12.9194    0.0000 C.3       1 <0>        0.00000
      3 C3         16.1124  -13.3342    0.0000 C.3       1 <0>        0.00000
      4 N1         16.8314  -12.9268    0.0000 N.3       1 <0>        0.00000
      5 C4         16.8357  -12.1004    0.0000 C.3       1 <0>        0.00000
      6 C5         16.1209  -11.6814    0.0000 C.3       1 <0>        0.00000
      7 C6         13.2682  -10.0248    0.0000 C.ar      1 <0>        0.00000
      8 C7         13.2646  -10.8513    0.0000 C.ar      1 <0>        0.00000
      9 C8         12.5536  -11.2665    0.0000 C.ar      1 <0>        0.00000
     10 C9         12.5544  -12.0946    0.0000 C.2       1 <0>        0.00000
     11 C10        11.8339  -10.8606    0.0000 C.ar      1 <0>        0.00000
     12 C11        11.1256   -9.6211    0.0000 C.3       1 <0>        0.00000
     13 C12        11.8360  -10.0403    0.0000 C.ar      1 <0>        0.00000
     14 C13        12.5488   -9.6329    0.0000 C.ar      1 <0>        0.00000
     15 C14        11.1324   -8.7985    0.0000 C.3       1 <0>        0.00000
     16 C15        11.8496   -8.3953    0.0000 C.3       1 <0>        0.00000
     17 C16        12.5703   -7.1689    0.0000 C.3       1 <0>        0.00000
     18 C17        11.8580   -7.5699    0.0000 C.3       1 <0>        0.00000
     19 C18        13.2785   -7.5845    0.0000 C.3       1 <0>        0.00000
     20 O1         13.2692   -8.4061    0.0000 O.3       1 <0>        0.00000
     21 C19        13.9923   -7.1861    0.0000 C.3       1 <0>        0.00000
     22 C20        14.6967   -7.6006    0.0000 C.2       1 <0>        0.00000
     23 C21        16.0992   -8.4325    0.0000 C.2       1 <0>        0.00000
     24 C22        16.1052   -7.6184    0.0000 C.2       1 <0>        0.00000
     25 C23        15.4082   -7.2048    0.0000 C.2       1 <0>        0.00000
     26 C24        15.3877   -8.8326    0.0000 C.2       1 <0>        0.00000
     27 C25        13.9679   -9.6167    0.0000 C.ar      1 <0>        0.00000
     28 C26        14.6630  -10.0363    0.0000 C.ar      1 <0>        0.00000
     29 N2         15.3729   -9.6422    0.0000 N.am      1 <0>        0.00000
     30 O2         13.1416  -12.6764    0.0000 O.2       1 <0>        0.00000
     31 C27        10.4061  -10.0335    0.0000 C.3       1 <0>        0.00000
     32 C28        10.4040  -10.8568    0.0000 C.2       1 <0>        0.00000
     33 C29         9.6890  -11.2643    0.0000 C.2       1 <0>        0.00000
     34 O3          9.6832  -12.0853    0.0000 O.3       1 <0>        0.00000
     35 C30        11.1078  -12.0953    0.0000 C.3       1 <0>        0.00000
     36 O4         11.1136  -11.2742    0.0000 O.3       1 <0>        0.00000
     37 C31        11.1027  -12.9194    0.0000 C.3       1 <0>        0.00000
     38 C32        16.8067   -8.8567    0.0000 C.3       1 <0>        0.00000
     39 O5          9.6905   -9.6157    0.0000 O.3       1 <0>        0.00000
     40 C33         8.9762  -10.0285    0.0000 C.3       1 <0>        0.00000
     41 C34        10.4046   -9.2070    0.0000 C.3       1 <0>        0.00000
     42 C35        12.5787   -6.3425    0.0000 C.3       1 <0>        0.00000
     43 C36        14.0016   -6.3598    0.0000 C.3       1 <0>        0.00000
     44 O6         10.4187   -8.3816    0.0000 O.3       1 <0>        0.00000
     45 O7         11.1461   -7.1457    0.0000 O.3       1 <0>        0.00000
     46 C37         9.6982   -7.9652    0.0000 C.2       1 <0>        0.00000
     47 C38         8.9816   -8.3815    0.0000 C.3       1 <0>        0.00000
     48 O8          9.6973   -7.1389    0.0000 O.2       1 <0>        0.00000
     49 O9         13.9742   -8.7902    0.0000 O.2       1 <0>        0.00000
     50 O10        12.5413   -8.8045    0.0000 O.3       1 <0>        0.00000
     51 C39        11.1284   -7.9781    0.0000 C.3       1 <0>        0.00000
     52 O11        14.6771   -8.4064    0.0000 O.2       1 <0>        0.00000
     53 C40        14.6987  -10.8530    0.0000 C.ar      1 <0>        0.00000
     54 C41        13.9807  -11.2640    0.0000 C.ar      1 <0>        0.00000
     55 N3         13.9766  -12.0892    0.0000 N.2       1 <0>        0.00000
     56 N4         15.4126  -11.2711    0.0000 N.pl3     1 <0>        0.00000
     57 C42        17.5465  -13.3416    0.0000 C.3       1 <0>        0.00000
     58 C43        18.2657  -12.9342    0.0000 C.3       1 <0>        0.00000
     59 C44        18.9806  -13.3490    0.0000 C.3       1 <0>        0.00000
     60 C45        18.2700  -12.1078    0.0000 C.3       1 <0>        0.00000
     61 C46        11.8306   -9.1899    0.0000 C.3       1 <0>        0.00000
     62 H1         15.4016  -12.9194    0.0000 H         1 <0>        0.00000
     63 H2         15.4016  -12.9194    0.0000 H         1 <0>        0.00000
     64 H3         16.1124  -13.3342    0.0000 H         1 <0>        0.00000
     65 H4         16.1124  -13.3342    0.0000 H         1 <0>        0.00000
     66 H5         16.8357  -12.1004    0.0000 H         1 <0>        0.00000
     67 H6         16.8357  -12.1004    0.0000 H         1 <0>        0.00000
     68 H7         16.1209  -11.6814    0.0000 H         1 <0>        0.00000
     69 H8         16.1209  -11.6814    0.0000 H         1 <0>        0.00000
     70 H9         11.1256   -9.6211    0.0000 H         1 <0>        0.00000
     71 H10        11.1324   -8.7985    0.0000 H         1 <0>        0.00000
     72 H11        11.8496   -8.3953    0.0000 H         1 <0>        0.00000
     73 H12        12.5703   -7.1689    0.0000 H         1 <0>        0.00000
     74 H13        11.8580   -7.5699    0.0000 H         1 <0>        0.00000
     75 H14        13.2785   -7.5845    0.0000 H         1 <0>        0.00000
     76 H15        13.2692   -8.4061    0.0000 H         1 <0>        0.00000
     77 H16        13.9923   -7.1861    0.0000 H         1 <0>        0.00000
     78 H17        14.6967   -7.6006    0.0000 H         1 <0>        0.00000
     79 H18        16.1052   -7.6184    0.0000 H         1 <0>        0.00000
     80 H19        15.4082   -7.2048    0.0000 H         1 <0>        0.00000
     81 H20        15.3729   -9.6422    0.0000 H         1 <0>        0.00000
     82 H21        10.4061  -10.0335    0.0000 H         1 <0>        0.00000
     83 H22        10.4040  -10.8568    0.0000 H         1 <0>        0.00000
     84 H23         9.6890  -11.2643    0.0000 H         1 <0>        0.00000
     85 H24        11.1027  -12.9194    0.0000 H         1 <0>        0.00000
     86 H25        11.1027  -12.9194    0.0000 H         1 <0>        0.00000
     87 H26        11.1027  -12.9194    0.0000 H         1 <0>        0.00000
     88 H27        16.8067   -8.8567    0.0000 H         1 <0>        0.00000
     89 H28        16.8067   -8.8567    0.0000 H         1 <0>        0.00000
     90 H29        16.8067   -8.8567    0.0000 H         1 <0>        0.00000
     91 H30         8.9762  -10.0285    0.0000 H         1 <0>        0.00000
     92 H31         8.9762  -10.0285    0.0000 H         1 <0>        0.00000
     93 H32         8.9762  -10.0285    0.0000 H         1 <0>        0.00000
     94 H33        10.4046   -9.2070    0.0000 H         1 <0>        0.00000
     95 H34        10.4046   -9.2070    0.0000 H         1 <0>        0.00000
     96 H35        10.4046   -9.2070    0.0000 H         1 <0>        0.00000
     97 H36        12.5787   -6.3425    0.0000 H         1 <0>        0.00000
     98 H37        12.5787   -6.3425    0.0000 H         1 <0>        0.00000
     99 H38        12.5787   -6.3425    0.0000 H         1 <0>        0.00000
    100 H39        14.0016   -6.3598    0.0000 H         1 <0>        0.00000
    101 H40        14.0016   -6.3598    0.0000 H         1 <0>        0.00000
    102 H41        14.0016   -6.3598    0.0000 H         1 <0>        0.00000
    103 H42        11.1461   -7.1457    0.0000 H         1 <0>        0.00000
    104 H43         8.9816   -8.3815    0.0000 H         1 <0>        0.00000
    105 H44         8.9816   -8.3815    0.0000 H         1 <0>        0.00000
    106 H45         8.9816   -8.3815    0.0000 H         1 <0>        0.00000
    107 H46        12.5413   -8.8045    0.0000 H         1 <0>        0.00000
    108 H47        11.1284   -7.9781    0.0000 H         1 <0>        0.00000
    109 H48        11.1284   -7.9781    0.0000 H         1 <0>        0.00000
    110 H49        11.1284   -7.9781    0.0000 H         1 <0>        0.00000
    111 H50        15.4126  -11.2711    0.0000 H         1 <0>        0.00000
    112 H51        17.5465  -13.3416    0.0000 H         1 <0>        0.00000
    113 H52        17.5465  -13.3416    0.0000 H         1 <0>        0.00000
    114 H53        18.2657  -12.9342    0.0000 H         1 <0>        0.00000
    115 H54        18.9806  -13.3490    0.0000 H         1 <0>        0.00000
    116 H55        18.9806  -13.3490    0.0000 H         1 <0>        0.00000
    117 H56        18.9806  -13.3490    0.0000 H         1 <0>        0.00000
    118 H57        18.2700  -12.1078    0.0000 H         1 <0>        0.00000
    119 H58        18.2700  -12.1078    0.0000 H         1 <0>        0.00000
    120 H59        18.2700  -12.1078    0.0000 H         1 <0>        0.00000
    121 H60        11.8306   -9.1899    0.0000 H         1 <0>        0.00000
    122 H61        11.8306   -9.1899    0.0000 H         1 <0>        0.00000
    123 H62        11.8306   -9.1899    0.0000 H         1 <0>        0.00000
@<TRIPOS>BOND
     1   28   29 1
     2   26   29 am
     3    5    6 1
     4   10   30 2
     5    1    6 1
     6   31   32 1
     7    8    9 ar
     8    7   14 ar
     9   13   14 ar
    10   15   16 1
    11   12   15 1
    12   32   33 2
    13   33   34 1
    14   35   36 1
    15   34   35 1
    16   10   35 1
    17   35   37 1
    18    1    2 1
    19   23   38 1
    20    7    8 ar
    21   31   39 1
    22   17   19 1
    23   39   40 1
    24   17   18 1
    25   12   41 1
    26   18   45 1
    27   16   18 1
    28   17   42 1
    29    8   54 1
    30   21   43 1
    31   28   53 2
    32   15   44 1
    33    7   27 1
    34   19   20 1
    35   44   46 1
    36   21   22 1
    37   46   47 1
    38   19   21 1
    39   46   48 2
    40    2    3 1
    41   27   49 2
    42    3    4 1
    43   14   50 1
    44    9   11 ar
    45   16   51 1
    46    9   10 1
    47   26   52 2
    48   23   26 1
    49   23   24 2
    50   24   25 1
    51   22   25 2
    52   53   54 1
    53   54   55 2
    54    1   56 1
    55   53   56 1
    56    1   55 1
    57    4    5 1
    58    4   57 1
    59   11   36 1
    60   57   58 1
    61   11   13 ar
    62   58   59 1
    63   12   31 1
    64   58   60 1
    65   27   28 1
    66   13   61 1
    67    2   62 1
    68    2   63 1
    69    3   64 1
    70    3   65 1
    71    5   66 1
    72    5   67 1
    73    6   68 1
    74    6   69 1
    75   12   70 1
    76   15   71 1
    77   16   72 1
    78   17   73 1
    79   18   74 1
    80   19   75 1
    81   20   76 1
    82   21   77 1
    83   22   78 1
    84   24   79 1
    85   25   80 1
    86   29   81 1
    87   31   82 1
    88   32   83 1
    89   33   84 1
    90   37   85 1
    91   37   86 1
    92   37   87 1
    93   38   88 1
    94   38   89 1
    95   38   90 1
    96   40   91 1
    97   40   92 1
    98   40   93 1
    99   41   94 1
   100   41   95 1
   101   41   96 1
   102   42   97 1
   103   42   98 1
   104   42   99 1
   105   43  100 1
   106   43  101 1
   107   43  102 1
   108   45  103 1
   109   47  104 1
   110   47  105 1
   111   47  106 1
   112   50  107 1
   113   51  108 1
   114   51  109 1
   115   51  110 1
   116   56  111 1
   117   57  112 1
   118   57  113 1
   119   58  114 1
   120   59  115 1
   121   59  116 1
   122   59  117 1
   123   60  118 1
   124   60  119 1
   125   60  120 1
   126   61  121 1
   127   61  122 1
   128   61  123 1
@<TRIPOS>SUBSTRUCTURE
     1 <0>         1 GROUP 0 A     ****
@<TRIPOS>MOLECULE
MiniDrugBank_106
  203   206     1     0     0
SMALL
NO_CHARGES

 
@<TRIPOS>ATOM
      1 S1         14.4329  -12.5210    0.0000 S.3       1 <0>        0.00000
      2 C1         15.2579  -12.5210    0.0000 C.3       1 <0>        0.00000
      3 C2         15.5054  -11.7372    0.0000 C.3       1 <0>        0.00000
      4 N1         14.8454  -11.2422    0.0000 N.2       1 <0>        0.00000
      5 C3         14.1854  -11.7372    0.0000 C.2       1 <0>        0.00000
      6 C4         13.4842  -11.3247    0.0000 C.3       1 <0>        0.00000
      7 N2         12.7416  -11.7372    0.0000 N.3       1 <0>        0.00000
      8 C5         16.2067  -11.3247    0.0000 C.2       1 <0>        0.00000
      9 N3         16.9492  -11.7372    0.0000 N.am      1 <0>        0.00000
     10 C6         17.6505  -11.3247    0.0000 C.3       1 <0>        0.00000
     11 C7         18.3518  -11.7372    0.0000 C.2       1 <0>        0.00000
     12 N4         19.0943  -11.3247    0.0000 N.am      1 <0>        0.00000
     13 C8         19.7955  -11.7372    0.0000 C.3       1 <0>        0.00000
     14 C9         20.4968  -11.3247    0.0000 C.2       1 <0>        0.00000
     15 N5         21.2393  -11.7372    0.0000 N.am      1 <0>        0.00000
     16 C10        21.9406  -11.3247    0.0000 C.3       1 <0>        0.00000
     17 C11        22.6419  -11.7372    0.0000 C.2       1 <0>        0.00000
     18 N6         23.3844  -11.3247    0.0000 N.am      1 <0>        0.00000
     19 C12        24.0857  -11.7372    0.0000 C.3       1 <0>        0.00000
     20 C13        24.7869  -11.3247    0.0000 C.2       1 <0>        0.00000
     21 N7         25.4881  -11.7372    0.0000 N.am      1 <0>        0.00000
     22 C14        26.2307  -11.3247    0.0000 C.3       1 <0>        0.00000
     23 C15        26.9319  -11.7372    0.0000 C.2       1 <0>        0.00000
     24 N8         27.6332  -11.3247    0.0000 N.am      1 <0>        0.00000
     25 C16        13.4842  -10.4996    0.0000 C.3       1 <0>        0.00000
     26 C17        14.1854  -10.0872    0.0000 C.3       1 <0>        0.00000
     27 C18        12.7829  -10.0872    0.0000 C.3       1 <0>        0.00000
     28 C19        12.7829   -9.2621    0.0000 C.3       1 <0>        0.00000
     29 O1         16.2067  -10.4996    0.0000 O.2       1 <0>        0.00000
     30 O2         18.3518  -12.5622    0.0000 O.2       1 <0>        0.00000
     31 O3         20.4968  -10.4996    0.0000 O.2       1 <0>        0.00000
     32 O4         22.6419  -12.5622    0.0000 O.2       1 <0>        0.00000
     33 O5         24.7869  -10.4996    0.0000 O.2       1 <0>        0.00000
     34 O6         26.9319  -12.5622    0.0000 O.2       1 <0>        0.00000
     35 C20        17.5680  -10.1696    0.0000 C.3       1 <0>        0.00000
     36 C21        18.2692   -9.7571    0.0000 C.3       1 <0>        0.00000
     37 C22        18.9705  -10.1696    0.0000 C.3       1 <0>        0.00000
     38 C23        18.2692   -8.9321    0.0000 C.3       1 <0>        0.00000
     39 C24        19.7955  -12.5622    0.0000 C.3       1 <0>        0.00000
     40 C25        19.0943  -12.9747    0.0000 C.3       1 <0>        0.00000
     41 C26        19.0943  -13.7997    0.0000 C.2       1 <0>        0.00000
     42 O7         18.3518  -14.2122    0.0000 O.3       1 <0>        0.00000
     43 O8         19.7955  -14.2122    0.0000 O.2       1 <0>        0.00000
     44 C27        21.9406  -10.4996    0.0000 C.3       1 <0>        0.00000
     45 C28        21.2393  -10.0872    0.0000 C.3       1 <0>        0.00000
     46 C29        22.6419  -10.0872    0.0000 C.3       1 <0>        0.00000
     47 C30        21.2393   -9.2621    0.0000 C.3       1 <0>        0.00000
     48 C31        24.0857  -12.5622    0.0000 C.3       1 <0>        0.00000
     49 C32        26.2307  -10.4996    0.0000 C.3       1 <0>        0.00000
     50 C33        28.3345  -11.7372    0.0000 C.3       1 <0>        0.00000
     51 C34        28.3345  -12.9747    0.0000 C.2       1 <0>        0.00000
     52 O9         27.6332  -13.3872    0.0000 O.2       1 <0>        0.00000
     53 N9         29.0770  -13.3872    0.0000 N.am      1 <0>        0.00000
     54 C35        29.0770  -14.5010    0.0000 C.3       1 <0>        0.00000
     55 C36        28.3345  -14.9135    0.0000 C.2       1 <0>        0.00000
     56 N10        28.3345  -15.7385    0.0000 N.am      1 <0>        0.00000
     57 O10        27.6332  -14.5010    0.0000 O.2       1 <0>        0.00000
     58 C37        27.6332  -16.1510    0.0000 C.3       1 <0>        0.00000
     59 C38        26.9319  -15.7385    0.0000 C.2       1 <0>        0.00000
     60 N11        26.1894  -16.1510    0.0000 N.am      1 <0>        0.00000
     61 O11        26.9319  -14.9135    0.0000 O.2       1 <0>        0.00000
     62 C39        25.4750  -15.7385    0.0000 C.3       1 <0>        0.00000
     63 C40        24.7605  -16.1510    0.0000 C.2       1 <0>        0.00000
     64 N12        24.0460  -15.7385    0.0000 N.am      1 <0>        0.00000
     65 O12        24.7605  -16.9760    0.0000 O.2       1 <0>        0.00000
     66 C41        23.3712  -12.9747    0.0000 C.3       1 <0>        0.00000
     67 C42        26.9451  -10.0872    0.0000 C.3       1 <0>        0.00000
     68 C43        26.9451   -9.2621    0.0000 C.3       1 <0>        0.00000
     69 N13        26.2307   -8.8496    0.0000 N.3       1 <0>        0.00000
     70 C44        29.0490  -11.3247    0.0000 C.3       1 <0>        0.00000
     71 C45        29.7535  -11.7315    0.0000 C.3       1 <0>        0.00000
     72 C46        29.0490  -10.4998    0.0000 C.3       1 <0>        0.00000
     73 C47        29.7635  -10.0872    0.0000 C.3       1 <0>        0.00000
     74 C48        29.7915  -14.9135    0.0000 C.3       1 <0>        0.00000
     75 C49        30.5060  -14.5010    0.0000 C.ar      1 <0>        0.00000
     76 C50        31.2315  -14.9200    0.0000 C.ar      1 <0>        0.00000
     77 C51        31.9460  -14.5076    0.0000 C.ar      1 <0>        0.00000
     78 C52        31.9461  -13.6826    0.0000 C.ar      1 <0>        0.00000
     79 C53        31.2206  -13.2636    0.0000 C.ar      1 <0>        0.00000
     80 C54        30.5061  -13.6759    0.0000 C.ar      1 <0>        0.00000
     81 C55        27.6332  -16.9760    0.0000 C.3       1 <0>        0.00000
     82 C56        28.3477  -17.3885    0.0000 C.ar      1 <0>        0.00000
     83 N14        28.4338  -18.2076    0.0000 N.ar      1 <0>        0.00000
     84 C57        29.2393  -18.3788    0.0000 C.ar      1 <0>        0.00000
     85 N15        29.6511  -17.6656    0.0000 N.pl3     1 <0>        0.00000
     86 C58        29.1000  -17.0536    0.0000 C.ar      1 <0>        0.00000
     87 C59        23.3315  -16.1510    0.0000 C.3       1 <0>        0.00000
     88 C60        22.6170  -15.7385    0.0000 C.2       1 <0>        0.00000
     89 N16        22.6170  -14.9135    0.0000 N.am      1 <0>        0.00000
     90 O13        21.9025  -16.1510    0.0000 O.2       1 <0>        0.00000
     91 C61        23.3315  -16.9760    0.0000 C.3       1 <0>        0.00000
     92 C62        22.6170  -17.3885    0.0000 C.2       1 <0>        0.00000
     93 O14        22.6170  -18.2135    0.0000 O.2       1 <0>        0.00000
     94 N17        21.9025  -16.9760    0.0000 N.am      1 <0>        0.00000
     95 C63        23.3712  -13.7997    0.0000 C.3       1 <0>        0.00000
     96 C64        25.4750  -14.5835    0.0000 C.3       1 <0>        0.00000
     97 C65        22.6566  -14.2122    0.0000 C.3       1 <0>        0.00000
     98 C66        24.7605  -14.1710    0.0000 C.2       1 <0>        0.00000
     99 O15        24.0460  -14.5835    0.0000 O.2       1 <0>        0.00000
    100 O16        24.7605  -13.3460    0.0000 O.3       1 <0>        0.00000
    101 H1         15.2579  -12.5210    0.0000 H         1 <0>        0.00000
    102 H2         15.2579  -12.5210    0.0000 H         1 <0>        0.00000
    103 H3         15.5054  -11.7372    0.0000 H         1 <0>        0.00000
    104 H4         13.4842  -11.3247    0.0000 H         1 <0>        0.00000
    105 H5         12.7416  -11.7372    0.0000 H         1 <0>        0.00000
    106 H6         12.7416  -11.7372    0.0000 H         1 <0>        0.00000
    107 H7         16.9492  -11.7372    0.0000 H         1 <0>        0.00000
    108 H8         17.6505  -11.3247    0.0000 H         1 <0>        0.00000
    109 H9         19.0943  -11.3247    0.0000 H         1 <0>        0.00000
    110 H10        19.7955  -11.7372    0.0000 H         1 <0>        0.00000
    111 H11        21.2393  -11.7372    0.0000 H         1 <0>        0.00000
    112 H12        21.9406  -11.3247    0.0000 H         1 <0>        0.00000
    113 H13        23.3844  -11.3247    0.0000 H         1 <0>        0.00000
    114 H14        24.0857  -11.7372    0.0000 H         1 <0>        0.00000
    115 H15        25.4881  -11.7372    0.0000 H         1 <0>        0.00000
    116 H16        26.2307  -11.3247    0.0000 H         1 <0>        0.00000
    117 H17        27.6332  -11.3247    0.0000 H         1 <0>        0.00000
    118 H18        13.4842  -10.4996    0.0000 H         1 <0>        0.00000
    119 H19        14.1854  -10.0872    0.0000 H         1 <0>        0.00000
    120 H20        14.1854  -10.0872    0.0000 H         1 <0>        0.00000
    121 H21        14.1854  -10.0872    0.0000 H         1 <0>        0.00000
    122 H22        12.7829  -10.0872    0.0000 H         1 <0>        0.00000
    123 H23        12.7829  -10.0872    0.0000 H         1 <0>        0.00000
    124 H24        12.7829   -9.2621    0.0000 H         1 <0>        0.00000
    125 H25        12.7829   -9.2621    0.0000 H         1 <0>        0.00000
    126 H26        12.7829   -9.2621    0.0000 H         1 <0>        0.00000
    127 H27        17.5680  -10.1696    0.0000 H         1 <0>        0.00000
    128 H28        17.5680  -10.1696    0.0000 H         1 <0>        0.00000
    129 H29        18.2692   -9.7571    0.0000 H         1 <0>        0.00000
    130 H30        18.9705  -10.1696    0.0000 H         1 <0>        0.00000
    131 H31        18.9705  -10.1696    0.0000 H         1 <0>        0.00000
    132 H32        18.9705  -10.1696    0.0000 H         1 <0>        0.00000
    133 H33        18.2692   -8.9321    0.0000 H         1 <0>        0.00000
    134 H34        18.2692   -8.9321    0.0000 H         1 <0>        0.00000
    135 H35        18.2692   -8.9321    0.0000 H         1 <0>        0.00000
    136 H36        19.7955  -12.5622    0.0000 H         1 <0>        0.00000
    137 H37        19.7955  -12.5622    0.0000 H         1 <0>        0.00000
    138 H38        19.0943  -12.9747    0.0000 H         1 <0>        0.00000
    139 H39        19.0943  -12.9747    0.0000 H         1 <0>        0.00000
    140 H40        18.3518  -14.2122    0.0000 H         1 <0>        0.00000
    141 H41        21.9406  -10.4996    0.0000 H         1 <0>        0.00000
    142 H42        21.2393  -10.0872    0.0000 H         1 <0>        0.00000
    143 H43        21.2393  -10.0872    0.0000 H         1 <0>        0.00000
    144 H44        22.6419  -10.0872    0.0000 H         1 <0>        0.00000
    145 H45        22.6419  -10.0872    0.0000 H         1 <0>        0.00000
    146 H46        22.6419  -10.0872    0.0000 H         1 <0>        0.00000
    147 H47        21.2393   -9.2621    0.0000 H         1 <0>        0.00000
    148 H48        21.2393   -9.2621    0.0000 H         1 <0>        0.00000
    149 H49        21.2393   -9.2621    0.0000 H         1 <0>        0.00000
    150 H50        24.0857  -12.5622    0.0000 H         1 <0>        0.00000
    151 H51        24.0857  -12.5622    0.0000 H         1 <0>        0.00000
    152 H52        26.2307  -10.4996    0.0000 H         1 <0>        0.00000
    153 H53        26.2307  -10.4996    0.0000 H         1 <0>        0.00000
    154 H54        28.3345  -11.7372    0.0000 H         1 <0>        0.00000
    155 H55        29.0770  -13.3872    0.0000 H         1 <0>        0.00000
    156 H56        29.0770  -14.5010    0.0000 H         1 <0>        0.00000
    157 H57        28.3345  -15.7385    0.0000 H         1 <0>        0.00000
    158 H58        27.6332  -16.1510    0.0000 H         1 <0>        0.00000
    159 H59        26.1894  -16.1510    0.0000 H         1 <0>        0.00000
    160 H60        25.4750  -15.7385    0.0000 H         1 <0>        0.00000
    161 H61        24.0460  -15.7385    0.0000 H         1 <0>        0.00000
    162 H62        23.3712  -12.9747    0.0000 H         1 <0>        0.00000
    163 H63        23.3712  -12.9747    0.0000 H         1 <0>        0.00000
    164 H64        26.9451  -10.0872    0.0000 H         1 <0>        0.00000
    165 H65        26.9451  -10.0872    0.0000 H         1 <0>        0.00000
    166 H66        26.9451   -9.2621    0.0000 H         1 <0>        0.00000
    167 H67        26.9451   -9.2621    0.0000 H         1 <0>        0.00000
    168 H68        26.2307   -8.8496    0.0000 H         1 <0>        0.00000
    169 H69        26.2307   -8.8496    0.0000 H         1 <0>        0.00000
    170 H70        29.0490  -11.3247    0.0000 H         1 <0>        0.00000
    171 H71        29.7535  -11.7315    0.0000 H         1 <0>        0.00000
    172 H72        29.7535  -11.7315    0.0000 H         1 <0>        0.00000
    173 H73        29.7535  -11.7315    0.0000 H         1 <0>        0.00000
    174 H74        29.0490  -10.4998    0.0000 H         1 <0>        0.00000
    175 H75        29.0490  -10.4998    0.0000 H         1 <0>        0.00000
    176 H76        29.7635  -10.0872    0.0000 H         1 <0>        0.00000
    177 H77        29.7635  -10.0872    0.0000 H         1 <0>        0.00000
    178 H78        29.7635  -10.0872    0.0000 H         1 <0>        0.00000
    179 H79        29.7915  -14.9135    0.0000 H         1 <0>        0.00000
    180 H80        29.7915  -14.9135    0.0000 H         1 <0>        0.00000
    181 H81        31.2315  -14.9200    0.0000 H         1 <0>        0.00000
    182 H82        31.9460  -14.5076    0.0000 H         1 <0>        0.00000
    183 H83        31.9461  -13.6826    0.0000 H         1 <0>        0.00000
    184 H84        31.2206  -13.2636    0.0000 H         1 <0>        0.00000
    185 H85        30.5061  -13.6759    0.0000 H         1 <0>        0.00000
    186 H86        27.6332  -16.9760    0.0000 H         1 <0>        0.00000
    187 H87        27.6332  -16.9760    0.0000 H         1 <0>        0.00000
    188 H88        29.2393  -18.3788    0.0000 H         1 <0>        0.00000
    189 H89        29.6511  -17.6656    0.0000 H         1 <0>        0.00000
    190 H90        29.1000  -17.0536    0.0000 H         1 <0>        0.00000
    191 H91        23.3315  -16.1510    0.0000 H         1 <0>        0.00000
    192 H92        22.6170  -14.9135    0.0000 H         1 <0>        0.00000
    193 H93        23.3315  -16.9760    0.0000 H         1 <0>        0.00000
    194 H94        23.3315  -16.9760    0.0000 H         1 <0>        0.00000
    195 H95        21.9025  -16.9760    0.0000 H         1 <0>        0.00000
    196 H96        21.9025  -16.9760    0.0000 H         1 <0>        0.00000
    197 H97        23.3712  -13.7997    0.0000 H         1 <0>        0.00000
    198 H98        23.3712  -13.7997    0.0000 H         1 <0>        0.00000
    199 H99        25.4750  -14.5835    0.0000 H         1 <0>        0.00000
    200 H100       25.4750  -14.5835    0.0000 H         1 <0>        0.00000
    201 H101       22.6566  -14.2122    0.0000 H         1 <0>        0.00000
    202 H102       22.6566  -14.2122    0.0000 H         1 <0>        0.00000
    203 H103       24.7605  -13.3460    0.0000 H         1 <0>        0.00000
@<TRIPOS>BOND
     1    1    2 1
     2    2    3 1
     3    3    4 1
     4    4    5 2
     5    1    5 1
     6    5    6 1
     7    6    7 1
     8    3    8 1
     9    8    9 am
    10    9   10 1
    11   10   11 1
    12   11   12 am
    13   12   13 1
    14   13   14 1
    15   14   15 am
    16   15   16 1
    17   16   17 1
    18   17   18 am
    19   18   19 1
    20   19   20 1
    21   20   21 am
    22   21   22 1
    23   22   23 1
    24   23   24 am
    25    6   25 1
    26   25   26 1
    27   25   27 1
    28   27   28 1
    29    8   29 2
    30   11   30 2
    31   14   31 2
    32   17   32 2
    33   20   33 2
    34   23   34 2
    35   10   35 1
    36   35   36 1
    37   36   37 1
    38   36   38 1
    39   13   39 1
    40   39   40 1
    41   40   41 1
    42   41   42 1
    43   41   43 2
    44   16   44 1
    45   44   45 1
    46   44   46 1
    47   45   47 1
    48   19   48 1
    49   22   49 1
    50   24   50 1
    51   50   51 1
    52   51   52 2
    53   51   53 am
    54   53   54 1
    55   54   55 1
    56   55   56 am
    57   55   57 2
    58   56   58 1
    59   58   59 1
    60   59   60 am
    61   59   61 2
    62   60   62 1
    63   62   63 1
    64   63   64 am
    65   63   65 2
    66   48   66 1
    67   49   67 1
    68   67   68 1
    69   68   69 1
    70   50   70 1
    71   70   71 1
    72   70   72 1
    73   72   73 1
    74   54   74 1
    75   74   75 1
    76   75   76 ar
    77   76   77 ar
    78   77   78 ar
    79   78   79 ar
    80   79   80 ar
    81   75   80 ar
    82   58   81 1
    83   81   82 1
    84   82   83 1
    85   83   84 2
    86   84   85 1
    87   85   86 1
    88   82   86 2
    89   64   87 1
    90   87   88 1
    91   88   89 am
    92   88   90 2
    93   87   91 1
    94   91   92 1
    95   92   93 2
    96   92   94 am
    97   66   95 1
    98   62   96 1
    99   95   97 1
   100   89   97 1
   101   96   98 1
   102   98   99 2
   103   98  100 1
   104    2  101 1
   105    2  102 1
   106    3  103 1
   107    6  104 1
   108    7  105 1
   109    7  106 1
   110    9  107 1
   111   10  108 1
   112   12  109 1
   113   13  110 1
   114   15  111 1
   115   16  112 1
   116   18  113 1
   117   19  114 1
   118   21  115 1
   119   22  116 1
   120   24  117 1
   121   25  118 1
   122   26  119 1
   123   26  120 1
   124   26  121 1
   125   27  122 1
   126   27  123 1
   127   28  124 1
   128   28  125 1
   129   28  126 1
   130   35  127 1
   131   35  128 1
   132   36  129 1
   133   37  130 1
   134   37  131 1
   135   37  132 1
   136   38  133 1
   137   38  134 1
   138   38  135 1
   139   39  136 1
   140   39  137 1
   141   40  138 1
   142   40  139 1
   143   42  140 1
   144   44  141 1
   145   45  142 1
   146   45  143 1
   147   46  144 1
   148   46  145 1
   149   46  146 1
   150   47  147 1
   151   47  148 1
   152   47  149 1
   153   48  150 1
   154   48  151 1
   155   49  152 1
   156   49  153 1
   157   50  154 1
   158   53  155 1
   159   54  156 1
   160   56  157 1
   161   58  158 1
   162   60  159 1
   163   62  160 1
   164   64  161 1
   165   66  162 1
   166   66  163 1
   167   67  164 1
   168   67  165 1
   169   68  166 1
   170   68  167 1
   171   69  168 1
   172   69  169 1
   173   70  170 1
   174   71  171 1
   175   71  172 1
   176   71  173 1
   177   72  174 1
   178   72  175 1
   179   73  176 1
   180   73  177 1
   181   73  178 1
   182   74  179 1
   183   74  180 1
   184   76  181 1
   185   77  182 1
   186   78  183 1
   187   79  184 1
   188   80  185 1
   189   81  186 1
   190   81  187 1
   191   84  188 1
   192   85  189 1
   193   86  190 1
   194   87  191 1
   195   89  192 1
   196   91  193 1
   197   91  194 1
   198   94  195 1
   199   94  196 1
   200   95  197 1
   201   95  198 1
   202   96  199 1
   203   96  200 1
   204   97  201 1
   205   97  202 1
   206  100  203 1
@<TRIPOS>SUBSTRUCTURE
     1 <0>         1 GROUP 0 A     ****
@<TRIPOS>MOLECULE
47D
   33    35     1     0     0
SMALL
NO_CHARGES

@<TRIPOS>ATOM
      1 C1          2.9420    2.6754    0.0000 C.ar      1 <0>        0.00000
      2 N1          2.1573    2.9303    0.0000 N.ar      1 <0>        0.00000
      3 C2          1.6724    2.2629    0.0000 C.ar      1 <0>        0.00000
      4 C3          0.8474    2.2629    0.0000 C.3       1 <0>        0.00000
      5 N2          0.4349    1.5484    0.0000 N.am      1 <0>        0.00000
      6 C4         -0.3901    1.5484    0.0000 C.ar      1 <0>        0.00000
      7 O1         -0.8026    2.2629    0.0000 O.2       1 <0>        0.00000
      8 N3         -0.8026    0.8340    0.0000 N.am      1 <0>        0.00000
      9 C5         -1.6276    0.8340    0.0000 C.3       1 <0>        0.00000
     10 C6         -2.0401    0.1195    0.0000 C.2       1 <0>        0.00000
     11 O2         -2.8651    0.1195    0.0000 O.3       1 <0>        0.00000
     12 O3         -1.6276   -0.5950    0.0000 O.2       1 <0>        0.00000
     13 C7         -0.3901    0.1195    0.0000 C.ar      1 <0>        0.00000
     14 C8          0.4349    0.1195    0.0000 C.ar      1 <0>        0.00000
     15 C9          0.8474    0.8340    0.0000 C.ar      1 <0>        0.00000
     16 O4          1.6724    0.8340    0.0000 O.2       1 <0>        0.00000
     17 S1          2.1573    1.5955    0.0000 S.3       1 <0>        0.00000
     18 C10         2.9420    1.8504    0.0000 C.ar      1 <0>        0.00000
     19 C11         3.6564    1.4379    0.0000 C.ar      1 <0>        0.00000
     20 C12         4.3709    1.8504    0.0000 C.ar      1 <0>        0.00000
     21 C13         4.3709    2.6754    0.0000 C.ar      1 <0>        0.00000
     22 Cl1         5.0854    3.0879    0.0000 Cl        1 <0>        0.00000
     23 C14         3.6564    3.0879    0.0000 C.ar      1 <0>        0.00000
     24 H1          0.8474    2.2629    0.0000 H         1 <0>        0.00000
     25 H2          0.8474    2.2629    0.0000 H         1 <0>        0.00000
     26 H3         -1.6276    0.8340    0.0000 H         1 <0>        0.00000
     27 H4         -1.6276    0.8340    0.0000 H         1 <0>        0.00000
     28 H5         -2.8651    0.1195    0.0000 H         1 <0>        0.00000
     29 H6         -0.3901    0.1195    0.0000 H         1 <0>        0.00000
     30 H7          0.4349    0.1195    0.0000 H         1 <0>        0.00000
     31 H8          3.6564    1.4379    0.0000 H         1 <0>        0.00000
     32 H9          4.3709    1.8504    0.0000 H         1 <0>        0.00000
     33 H10         3.6564    3.0879    0.0000 H         1 <0>        0.00000
@<TRIPOS>BOND
     1    1   23 ar
     2    1   18 ar
     3    1    2 1
     4    2    3 2
     5    3   17 1
     6    3    4 1
     7    4    5 1
     8    5   15 am
     9    5    6 am
    10    6    7 2
    11    6    8 am
    12    8   13 1
    13    8    9 1
    14    9   10 1
    15   10   12 2
    16   10   11 1
    17   13   14 2
    18   14   15 1
    19   15   16 2
    20   17   18 1
    21   18   19 ar
    22   19   20 ar
    23   20   21 ar
    24   21   22 1
    25   21   23 ar
    26    4   24 1
    27    4   25 1
    28    9   26 1
    29    9   27 1
    30   11   28 1
    31   13   29 1
    32   14   30 1
    33   19   31 1
    34   20   32 1
    35   23   33 1
@<TRIPOS>SUBSTRUCTURE
     1 <0>         1 GROUP 0 A     ****
@<TRIPOS>MOLECULE
492
   21    22     1     0     0
SMALL
NO_CHARGES

@<TRIPOS>ATOM
      1 N1         -1.4181    2.1558    0.0000 N.3       1 <0>        0.00000
      2 C1         -0.7036    1.7433    0.0000 C.3       1 <0>        0.00000
      3 C2         -0.7036    0.9183    0.0000 C.ar      1 <0>        0.00000
      4 S1         -0.0362    0.4333    0.0000 S.3       1 <0>        0.00000
      5 C3         -0.2911   -0.3513    0.0000 C.ar      1 <0>        0.00000
      6 C4         -1.1161   -0.3513    0.0000 C.ar      1 <0>        0.00000
      7 C5         -1.3710    0.4333    0.0000 C.ar      1 <0>        0.00000
      8 C6          0.1938   -1.0187    0.0000 C.ar      1 <0>        0.00000
      9 S2         -0.0611   -1.8033    0.0000 S.3       1 <0>        0.00000
     10 C7          0.6063   -2.2883    0.0000 C.ar      1 <0>        0.00000
     11 C8          1.2738   -1.8033    0.0000 C.ar      1 <0>        0.00000
     12 C9          1.0188   -1.0187    0.0000 C.ar      1 <0>        0.00000
     13 H1         -1.4181    2.1558    0.0000 H         1 <0>        0.00000
     14 H2         -1.4181    2.1558    0.0000 H         1 <0>        0.00000
     15 H3         -0.7036    1.7433    0.0000 H         1 <0>        0.00000
     16 H4         -0.7036    1.7433    0.0000 H         1 <0>        0.00000
     17 H5         -1.1161   -0.3513    0.0000 H         1 <0>        0.00000
     18 H6         -1.3710    0.4333    0.0000 H         1 <0>        0.00000
     19 H7          0.6063   -2.2883    0.0000 H         1 <0>        0.00000
     20 H8          1.2738   -1.8033    0.0000 H         1 <0>        0.00000
     21 H9          1.0188   -1.0187    0.0000 H         1 <0>        0.00000
@<TRIPOS>BOND
     1    1    2 1
     2    2    3 1
     3    3    4 1
     4    4    5 1
     5    5    8 1
     6    5    6 2
     7    6    7 1
     8    3    7 2
     9    8   12 2
    10    8    9 1
    11    9   10 1
    12   10   11 2
    13   11   12 1
    14    1   13 1
    15    1   14 1
    16    2   15 1
    17    2   16 1
    18    6   17 1
    19    7   18 1
    20   10   19 1
    21   11   20 1
    22   12   21 1
@<TRIPOS>SUBSTRUCTURE
     1 <0>         1 GROUP 0 A     ****
@<TRIPOS>MOLECULE
4BM
   40    41     1     0     0
SMALL
NO_CHARGES

@<TRIPOS>ATOM
      1 C1         -2.9248    1.0100    0.0000 C.ar      1 <0>        0.00000
      2 C2         -3.6392    0.5975    0.0000 C.ar      1 <0>        0.00000
      3 C3         -4.3537    1.0100    0.0000 C.ar      1 <0>        0.00000
      4 C4         -4.3537    1.8350    0.0000 C.ar      1 <0>        0.00000
      5 C5         -3.6392    2.2475    0.0000 C.ar      1 <0>        0.00000
      6 C6         -2.9248    1.8350    0.0000 C.ar      1 <0>        0.00000
      7 N1         -2.2103    0.5975    0.0000 N.pl3     1 <0>        0.00000
      8 C7         -2.2103   -0.2275    0.0000 C.ar      1 <0>        0.00000
      9 C8         -1.4958   -0.6400    0.0000 C.ar      1 <0>        0.00000
     10 C9         -1.4958   -1.4650    0.0000 C.ar      1 <0>        0.00000
     11 C10        -2.2103   -1.8775    0.0000 C.ar      1 <0>        0.00000
     12 C11        -2.9248   -1.4650    0.0000 C.ar      1 <0>        0.00000
     13 C12        -2.9248   -0.6400    0.0000 C.ar      1 <0>        0.00000
     14 C13        -0.7813   -0.2275    0.0000 C.2       1 <0>        0.00000
     15 N2         -0.0669   -0.6400    0.0000 N.am      1 <0>        0.00000
     16 O1         -0.7813    0.5975    0.0000 O.2       1 <0>        0.00000
     17 O2          0.6476   -0.2275    0.0000 O.3       1 <0>        0.00000
     18 C14         1.3621   -0.6400    0.0000 C.3       1 <0>        0.00000
     19 C15         2.0765   -0.2275    0.0000 C.3       1 <0>        0.00000
     20 C16         2.7910   -0.6400    0.0000 C.3       1 <0>        0.00000
     21 O3          2.0765    0.5975    0.0000 O.3       1 <0>        0.00000
     22 O4          3.5055   -0.2275    0.0000 O.3       1 <0>        0.00000
     23 I1         -5.0682    2.2475    0.0000 I         1 <0>        0.00000
     24 F1         -2.2103    2.2475    0.0000 F         1 <0>        0.00000
     25 F2         -3.6392   -0.2275    0.0000 F         1 <0>        0.00000
     26 F3         -3.6392   -1.8775    0.0000 F         1 <0>        0.00000
     27 H1          2.0765   -0.8115    0.0000 H         1 <0>        0.00000
     28 H2         -3.6392    0.5975    0.0000 H         1 <0>        0.00000
     29 H3         -4.3537    1.0100    0.0000 H         1 <0>        0.00000
     30 H4         -3.6392    2.2475    0.0000 H         1 <0>        0.00000
     31 H5         -2.2103    0.5975    0.0000 H         1 <0>        0.00000
     32 H6         -1.4958   -1.4650    0.0000 H         1 <0>        0.00000
     33 H7         -2.2103   -1.8775    0.0000 H         1 <0>        0.00000
     34 H8         -0.0669   -0.6400    0.0000 H         1 <0>        0.00000
     35 H9          1.3621   -0.6400    0.0000 H         1 <0>        0.00000
     36 H10         1.3621   -0.6400    0.0000 H         1 <0>        0.00000
     37 H11         2.7910   -0.6400    0.0000 H         1 <0>        0.00000
     38 H12         2.7910   -0.6400    0.0000 H         1 <0>        0.00000
     39 H13         2.0765    0.5975    0.0000 H         1 <0>        0.00000
     40 H14         3.5055   -0.2275    0.0000 H         1 <0>        0.00000
@<TRIPOS>BOND
     1    1    2 ar
     2    1    6 ar
     3    1    7 1
     4    2    3 ar
     5    3    4 ar
     6    4    5 ar
     7    4   23 1
     8    5    6 ar
     9    6   24 1
    10    7    8 1
    11    8    9 ar
    12    8   13 ar
    13    9   10 ar
    14    9   14 1
    15   10   11 ar
    16   11   12 ar
    17   12   13 ar
    18   12   26 1
    19   13   25 1
    20   14   15 am
    21   14   16 2
    22   15   17 1
    23   17   18 1
    24   18   19 1
    25   19   20 1
    26   19   21 1
    27   19   27 1
    28   20   22 1
    29    2   28 1
    30    3   29 1
    31    5   30 1
    32    7   31 1
    33   10   32 1
    34   11   33 1
    35   15   34 1
    36   18   35 1
    37   18   36 1
    38   20   37 1
    39   20   38 1
    40   21   39 1
    41   22   40 1
@<TRIPOS>SUBSTRUCTURE
     1 <0>         1 GROUP 0 A     ****
@<TRIPOS>MOLECULE
669
   41    42     1     0     0
SMALL
NO_CHARGES

@<TRIPOS>ATOM
      1 S1          3.0791   -0.5207    0.0000 S.o2      1 <0>        0.00000
      2 O1          3.4916   -1.2351    0.0000 O.2       1 <0>        0.00000
      3 O2          2.6665    0.1938    0.0000 O.2       1 <0>        0.00000
      4 N1          6.7176   -1.5972    0.0000 N.pl3     1 <0>        0.00000
      5 N2          8.0375    1.4693    0.0000 N.3       1 <0>        0.00000
      6 N3          2.3645   -0.9332    0.0000 N.pl3     1 <0>        0.00000
      7 C1          6.7176   -0.2693    0.0000 C.ar      1 <0>        0.00000
      8 C2          5.9370   -0.5207    0.0000 C.ar      1 <0>        0.00000
      9 C3          6.9739    0.5149    0.0000 C.3       1 <0>        0.00000
     10 C4          5.9370   -1.3457    0.0000 C.ar      1 <0>        0.00000
     11 C5          4.5080   -0.5207    0.0000 C.ar      1 <0>        0.00000
     12 C6          7.7812    0.6851    0.0000 C.3       1 <0>        0.00000
     13 C7          5.2224   -0.1082    0.0000 C.ar      1 <0>        0.00000
     14 C8          7.1991   -0.9332    0.0000 C.ar      1 <0>        0.00000
     15 C9          3.7935   -0.1082    0.0000 C.3       1 <0>        0.00000
     16 C10         5.2224   -1.7582    0.0000 C.ar      1 <0>        0.00000
     17 C11         4.5080   -1.3457    0.0000 C.ar      1 <0>        0.00000
     18 C12         8.8448    1.6394    0.0000 C.3       1 <0>        0.00000
     19 C13         7.4865    2.0833    0.0000 C.3       1 <0>        0.00000
     20 C14         1.6500   -0.5207    0.0000 C.3       1 <0>        0.00000
     21 H1          6.7176   -1.5972    0.0000 H         1 <0>        0.00000
     22 H2          2.3645   -0.9332    0.0000 H         1 <0>        0.00000
     23 H3          6.9739    0.5149    0.0000 H         1 <0>        0.00000
     24 H4          6.9739    0.5149    0.0000 H         1 <0>        0.00000
     25 H5          7.7812    0.6851    0.0000 H         1 <0>        0.00000
     26 H6          7.7812    0.6851    0.0000 H         1 <0>        0.00000
     27 H7          5.2224   -0.1082    0.0000 H         1 <0>        0.00000
     28 H8          7.1991   -0.9332    0.0000 H         1 <0>        0.00000
     29 H9          3.7935   -0.1082    0.0000 H         1 <0>        0.00000
     30 H10         3.7935   -0.1082    0.0000 H         1 <0>        0.00000
     31 H11         5.2224   -1.7582    0.0000 H         1 <0>        0.00000
     32 H12         4.5080   -1.3457    0.0000 H         1 <0>        0.00000
     33 H13         8.8448    1.6394    0.0000 H         1 <0>        0.00000
     34 H14         8.8448    1.6394    0.0000 H         1 <0>        0.00000
     35 H15         8.8448    1.6394    0.0000 H         1 <0>        0.00000
     36 H16         7.4865    2.0833    0.0000 H         1 <0>        0.00000
     37 H17         7.4865    2.0833    0.0000 H         1 <0>        0.00000
     38 H18         7.4865    2.0833    0.0000 H         1 <0>        0.00000
     39 H19         1.6500   -0.5207    0.0000 H         1 <0>        0.00000
     40 H20         1.6500   -0.5207    0.0000 H         1 <0>        0.00000
     41 H21         1.6500   -0.5207    0.0000 H         1 <0>        0.00000
@<TRIPOS>BOND
     1    1    2 2
     2    1    3 2
     3    1    6 1
     4    1   15 1
     5    4   10 1
     6    4   14 1
     7    5   12 1
     8    5   18 1
     9    5   19 1
    10    6   20 1
    11    7    8 1
    12    7    9 1
    13    7   14 2
    14    8   10 ar
    15    8   13 ar
    16    9   12 1
    17   10   16 ar
    18   11   13 ar
    19   11   15 1
    20   11   17 ar
    21   16   17 ar
    22    4   21 1
    23    6   22 1
    24    9   23 1
    25    9   24 1
    26   12   25 1
    27   12   26 1
    28   13   27 1
    29   14   28 1
    30   15   29 1
    31   15   30 1
    32   16   31 1
    33   17   32 1
    34   18   33 1
    35   18   34 1
    36   18   35 1
    37   19   36 1
    38   19   37 1
    39   19   38 1
    40   20   39 1
    41   20   40 1
    42   20   41 1
@<TRIPOS>SUBSTRUCTURE
     1 <0>         1 GROUP 0 A     ****
@<TRIPOS>MOLECULE
MiniDrugBank_111
   40    41     1     0     0
SMALL
NO_CHARGES

@<TRIPOS>ATOM
      1 O1          0.7145   -5.3625    0.0000 O.3       1 <0>        0.00000
      2 C1          1.4289   -4.9500    0.0000 C.3       1 <0>        0.00000
      3 C2          2.1434   -5.3625    0.0000 C.3       1 <0>        0.00000
      4 O2          2.1434   -6.1875    0.0000 O.3       1 <0>        0.00000
      5 C3          2.8579   -4.9500    0.0000 C.3       1 <0>        0.00000
      6 O3          3.5724   -5.3625    0.0000 O.3       1 <0>        0.00000
      7 N1          4.2868   -4.9500    0.0000 N.am      1 <0>        0.00000
      8 C4          5.0013   -5.3625    0.0000 C.2       1 <0>        0.00000
      9 O4          5.0013   -6.1875    0.0000 O.2       1 <0>        0.00000
     10 C5          5.7158   -4.9500    0.0000 C.ar      1 <0>        0.00000
     11 C6          5.7158   -4.1250    0.0000 C.ar      1 <0>        0.00000
     12 C7          6.4302   -3.7125    0.0000 C.ar      1 <0>        0.00000
     13 Br1         6.4302   -2.8875    0.0000 Br        1 <0>        0.00000
     14 C8          7.1447   -4.1250    0.0000 C.ar      1 <0>        0.00000
     15 F1          7.8592   -3.7125    0.0000 F         1 <0>        0.00000
     16 C9          7.1447   -4.9500    0.0000 C.ar      1 <0>        0.00000
     17 F2          7.8592   -5.3625    0.0000 F         1 <0>        0.00000
     18 C10         6.4302   -5.3625    0.0000 C.ar      1 <0>        0.00000
     19 N2          6.4302   -6.1875    0.0000 N.pl3     1 <0>        0.00000
     20 C11         7.1447   -6.6000    0.0000 C.ar      1 <0>        0.00000
     21 C12         7.8592   -6.1875    0.0000 C.ar      1 <0>        0.00000
     22 C13         8.5737   -6.6000    0.0000 C.ar      1 <0>        0.00000
     23 C14         8.5737   -7.4250    0.0000 C.ar      1 <0>        0.00000
     24 I1          9.2881   -7.8375    0.0000 I         1 <0>        0.00000
     25 C15         7.8592   -7.8375    0.0000 C.ar      1 <0>        0.00000
     26 C16         7.1447   -7.4250    0.0000 C.ar      1 <0>        0.00000
     27 F3          6.4302   -7.8375    0.0000 F         1 <0>        0.00000
     28 H1          0.7145   -5.3625    0.0000 H         1 <0>        0.00000
     29 H2          1.4289   -4.9500    0.0000 H         1 <0>        0.00000
     30 H3          1.4289   -4.9500    0.0000 H         1 <0>        0.00000
     31 H4          2.1434   -5.3625    0.0000 H         1 <0>        0.00000
     32 H5          2.1434   -6.1875    0.0000 H         1 <0>        0.00000
     33 H6          2.8579   -4.9500    0.0000 H         1 <0>        0.00000
     34 H7          2.8579   -4.9500    0.0000 H         1 <0>        0.00000
     35 H8          4.2868   -4.9500    0.0000 H         1 <0>        0.00000
     36 H9          5.7158   -4.1250    0.0000 H         1 <0>        0.00000
     37 H10         6.4302   -6.1875    0.0000 H         1 <0>        0.00000
     38 H11         7.8592   -6.1875    0.0000 H         1 <0>        0.00000
     39 H12         8.5737   -6.6000    0.0000 H         1 <0>        0.00000
     40 H13         7.8592   -7.8375    0.0000 H         1 <0>        0.00000
@<TRIPOS>BOND
     1    1    2 1
     2    2    3 1
     3    3    4 1
     4    3    5 1
     5    5    6 1
     6    6    7 1
     7    7    8 am
     8    8    9 2
     9    8   10 1
    10   10   11 ar
    11   11   12 ar
    12   12   13 1
    13   12   14 ar
    14   14   15 1
    15   14   16 ar
    16   16   17 1
    17   16   18 ar
    18   10   18 ar
    19   18   19 1
    20   19   20 1
    21   20   21 ar
    22   21   22 ar
    23   22   23 ar
    24   23   24 1
    25   23   25 ar
    26   25   26 ar
    27   20   26 ar
    28   26   27 1
    29    1   28 1
    30    2   29 1
    31    2   30 1
    32    3   31 1
    33    4   32 1
    34    5   33 1
    35    5   34 1
    36    7   35 1
    37   11   36 1
    38   19   37 1
    39   21   38 1
    40   22   39 1
    41   25   40 1
@<TRIPOS>SUBSTRUCTURE
     1 <0>         1 GROUP 0 A     ****
@<TRIPOS>MOLECULE
4HG
   28    29     1     0     0
SMALL
NO_CHARGES

@<TRIPOS>ATOM
      1 C1         -1.0203   -2.2504    0.0000 C.ar      1 <0>        0.00000
      2 C2         -1.7348   -1.8379    0.0000 C.ar      1 <0>        0.00000
      3 C3         -1.7348   -1.0129    0.0000 C.ar      1 <0>        0.00000
      4 C4         -0.3058   -1.8379    0.0000 C.ar      1 <0>        0.00000
      5 C5         -0.3058   -1.0129    0.0000 C.ar      1 <0>        0.00000
      6 C6         -1.0203   -0.6004    0.0000 C.ar      1 <0>        0.00000
      7 C7         -1.0203    0.2246    0.0000 C.ar      1 <0>        0.00000
      8 N1         -0.3058    0.6371    0.0000 N.ar      1 <0>        0.00000
      9 C8          0.4087    0.2246    0.0000 C.ar      1 <0>        0.00000
     10 C9          0.4087   -0.6004    0.0000 C.ar      1 <0>        0.00000
     11 I1         -2.4492   -0.6004    0.0000 I         1 <0>        0.00000
     12 O1          1.1231   -1.0129    0.0000 O.3       1 <0>        0.00000
     13 C10         1.1231    0.6371    0.0000 C.2       1 <0>        0.00000
     14 C11         2.5521    0.6371    0.0000 C.3       1 <0>        0.00000
     15 C12         3.2665    0.2246    0.0000 C.2       1 <0>        0.00000
     16 O2          3.9810    0.6371    0.0000 O.3       1 <0>        0.00000
     17 O3          1.1231    1.4621    0.0000 O.2       1 <0>        0.00000
     18 O4          3.2665   -0.6004    0.0000 O.2       1 <0>        0.00000
     19 N2          1.8376    0.2246    0.0000 N.am      1 <0>        0.00000
     20 H1         -1.0203   -2.2504    0.0000 H         1 <0>        0.00000
     21 H2         -1.7348   -1.8379    0.0000 H         1 <0>        0.00000
     22 H3         -0.3058   -1.8379    0.0000 H         1 <0>        0.00000
     23 H4         -1.0203    0.2246    0.0000 H         1 <0>        0.00000
     24 H5          1.1231   -1.0129    0.0000 H         1 <0>        0.00000
     25 H6          2.5521    0.6371    0.0000 H         1 <0>        0.00000
     26 H7          2.5521    0.6371    0.0000 H         1 <0>        0.00000
     27 H8          3.9810    0.6371    0.0000 H         1 <0>        0.00000
     28 H9          1.8376    0.2246    0.0000 H         1 <0>        0.00000
@<TRIPOS>BOND
     1    1    2 ar
     2    1    4 ar
     3    2    3 ar
     4    3    6 ar
     5    3   11 1
     6    4    5 ar
     7    5    6 ar
     8    5   10 ar
     9    6    7 ar
    10    7    8 ar
    11    8    9 ar
    12    9   10 ar
    13    9   13 1
    14   10   12 1
    15   13   17 2
    16   13   19 am
    17   14   15 1
    18   14   19 1
    19   15   16 1
    20   15   18 2
    21    1   20 1
    22    2   21 1
    23    4   22 1
    24    7   23 1
    25   12   24 1
    26   14   25 1
    27   14   26 1
    28   16   27 1
    29   19   28 1
@<TRIPOS>SUBSTRUCTURE
     1 <0>         1 GROUP 0 A     ****
@<TRIPOS>MOLECULE
677
   25    24     1     0     0
SMALL
NO_CHARGES

@<TRIPOS>ATOM
      1 P1          3.7935    0.0000    0.0000 P.3       1 <0>        0.00000
      2 F1          3.3810    0.7145    0.0000 F         1 <0>        0.00000
      3 O1          4.5080    0.4125    0.0000 O.3       1 <0>        0.00000
      4 O2          3.0791   -0.4125    0.0000 O.3       1 <0>        0.00000
      5 O3          4.2060   -0.7145    0.0000 O.2       1 <0>        0.00000
      6 C1          5.2224    0.0000    0.0000 C.3       1 <0>        0.00000
      7 C2          2.3645    0.0000    0.0000 C.3       1 <0>        0.00000
      8 C3          5.9370    0.4125    0.0000 C.3       1 <0>        0.00000
      9 C4          5.2224   -0.8250    0.0000 C.3       1 <0>        0.00000
     10 C5          1.6500   -0.4125    0.0000 C.3       1 <0>        0.00000
     11 C6          2.3645    0.8250    0.0000 C.3       1 <0>        0.00000
     12 H1          5.2224    0.0000    0.0000 H         1 <0>        0.00000
     13 H2          2.3645    0.0000    0.0000 H         1 <0>        0.00000
     14 H3          5.9370    0.4125    0.0000 H         1 <0>        0.00000
     15 H4          5.9370    0.4125    0.0000 H         1 <0>        0.00000
     16 H5          5.9370    0.4125    0.0000 H         1 <0>        0.00000
     17 H6          5.2224   -0.8250    0.0000 H         1 <0>        0.00000
     18 H7          5.2224   -0.8250    0.0000 H         1 <0>        0.00000
     19 H8          5.2224   -0.8250    0.0000 H         1 <0>        0.00000
     20 H9          1.6500   -0.4125    0.0000 H         1 <0>        0.00000
     21 H10         1.6500   -0.4125    0.0000 H         1 <0>        0.00000
     22 H11         1.6500   -0.4125    0.0000 H         1 <0>        0.00000
     23 H12         2.3645    0.8250    0.0000 H         1 <0>        0.00000
     24 H13         2.3645    0.8250    0.0000 H         1 <0>        0.00000
     25 H14         2.3645    0.8250    0.0000 H         1 <0>        0.00000
@<TRIPOS>BOND
     1    1    2 1
     2    1    3 1
     3    1    4 1
     4    1    5 2
     5    3    6 1
     6    4    7 1
     7    6    8 1
     8    6    9 1
     9    7   10 1
    10    7   11 1
    11    6   12 1
    12    7   13 1
    13    8   14 1
    14    8   15 1
    15    8   16 1
    16    9   17 1
    17    9   18 1
    18    9   19 1
    19   10   20 1
    20   10   21 1
    21   10   22 1
    22   11   23 1
    23   11   24 1
    24   11   25 1
@<TRIPOS>SUBSTRUCTURE
     1 <0>         1 GROUP 0 A     ****
@<TRIPOS>MOLECULE
ESI
   21    22     1     0     0
SMALL
NO_CHARGES

@<TRIPOS>ATOM
      1 C1         -0.8071    0.0999    0.0000 C.cat     1 <0>        0.00000
      2 C2          0.0179    0.0999    0.0000 C.ar      1 <0>        0.00000
      3 N1         -1.2196    0.8144    0.0000 N.pl3     1 <0>        0.00000
      4 N2         -1.2196   -0.6145    0.0000 N.pl3     1 <0>        0.00000
      5 S1          0.5029   -0.5675    0.0000 S.3       1 <0>        0.00000
      6 C3          1.2875   -0.3126    0.0000 C.ar      1 <0>        0.00000
      7 C4          1.2875    0.5124    0.0000 C.ar      1 <0>        0.00000
      8 C5          0.5029    0.7674    0.0000 C.ar      1 <0>        0.00000
      9 C6          2.0019   -0.7251    0.0000 C.ar      1 <0>        0.00000
     10 C7          2.7164   -0.3126    0.0000 C.ar      1 <0>        0.00000
     11 C8          2.7164    0.5124    0.0000 C.ar      1 <0>        0.00000
     12 C9          2.0019    0.9249    0.0000 C.ar      1 <0>        0.00000
     13 I1          2.0019    1.7499    0.0000 I         1 <0>        0.00000
     14 H1         -1.2196    0.8144    0.0000 H         1 <0>        0.00000
     15 H2         -1.2196    0.8144    0.0000 H         1 <0>        0.00000
     16 H3         -1.2196   -0.6145    0.0000 H         1 <0>        0.00000
     17 H4         -1.2196   -0.6145    0.0000 H         1 <0>        0.00000
     18 H5          0.5029    0.7674    0.0000 H         1 <0>        0.00000
     19 H6          2.0019   -0.7251    0.0000 H         1 <0>        0.00000
     20 H7          2.7164   -0.3126    0.0000 H         1 <0>        0.00000
     21 H8          2.7164    0.5124    0.0000 H         1 <0>        0.00000
@<TRIPOS>BOND
     1    1    2 1
     2    1    3 1
     3    1    4 2
     4    2    5 1
     5    2    8 2
     6    5    6 1
     7    6    7 ar
     8    6    9 ar
     9    7    8 1
    10    7   12 ar
    11    9   10 ar
    12   10   11 ar
    13   11   12 ar
    14   12   13 1
    15    3   14 1
    16    3   15 1
    17    4   16 1
    18    4   17 1
    19    8   18 1
    20    9   19 1
    21   10   20 1
    22   11   21 1
@<TRIPOS>SUBSTRUCTURE
     1 <0>         1 GROUP 0 A     ****
@<TRIPOS>MOLECULE
PUZ
   47    49     1     0     0
SMALL
NO_CHARGES

@<TRIPOS>ATOM
      1 C1         -4.3829    0.8609    0.0000 C.1       1 <0>        0.00000
      2 C2         -3.6685    0.4484    0.0000 C.1       1 <0>        0.00000
      3 C3         -2.9540    0.0359    0.0000 C.3       1 <0>        0.00000
      4 C4         -2.2395    0.4484    0.0000 C.3       1 <0>        0.00000
      5 C5         -1.5250    0.0359    0.0000 C.3       1 <0>        0.00000
      6 N1         -0.8106    0.4484    0.0000 N.pl3     1 <0>        0.00000
      7 C6         -0.7243    1.2689    0.0000 C.ar      1 <0>        0.00000
      8 N2         -1.2764    1.8820    0.0000 N.ar      1 <0>        0.00000
      9 C7          0.0826    1.4404    0.0000 C.ar      1 <0>        0.00000
     10 C8          0.3376    2.2251    0.0000 C.ar      1 <0>        0.00000
     11 N3          1.1446    2.3966    0.0000 N.pl3     1 <0>        0.00000
     12 N4         -0.2145    2.8381    0.0000 N.ar      1 <0>        0.00000
     13 C9         -1.0214    2.6666    0.0000 C.ar      1 <0>        0.00000
     14 F1         -1.5735    3.2797    0.0000 F         1 <0>        0.00000
     15 N5          0.4951    0.7260    0.0000 N.ar      1 <0>        0.00000
     16 C10        -0.0569    0.1129    0.0000 C.ar      1 <0>        0.00000
     17 C11         0.1146   -0.6941    0.0000 C.3       1 <0>        0.00000
     18 C12         0.8993   -0.9490    0.0000 C.ar      1 <0>        0.00000
     19 C13         1.5124   -0.3970    0.0000 C.ar      1 <0>        0.00000
     20 O1          1.3408    0.4100    0.0000 O.3       1 <0>        0.00000
     21 C14         1.9539    0.9620    0.0000 C.3       1 <0>        0.00000
     22 C15         2.2970   -0.6520    0.0000 C.ar      1 <0>        0.00000
     23 C16         2.4685   -1.4589    0.0000 C.ar      1 <0>        0.00000
     24 C17         1.8554   -2.0110    0.0000 C.ar      1 <0>        0.00000
     25 C18         1.0708   -1.7560    0.0000 C.ar      1 <0>        0.00000
     26 O2          2.0269   -2.8179    0.0000 O.3       1 <0>        0.00000
     27 C19         2.8116   -3.0729    0.0000 C.3       1 <0>        0.00000
     28 H1         -4.3829    0.8609    0.0000 H         1 <0>        0.00000
     29 H2         -2.9540    0.0359    0.0000 H         1 <0>        0.00000
     30 H3         -2.9540    0.0359    0.0000 H         1 <0>        0.00000
     31 H4         -2.2395    0.4484    0.0000 H         1 <0>        0.00000
     32 H5         -2.2395    0.4484    0.0000 H         1 <0>        0.00000
     33 H6         -1.5250    0.0359    0.0000 H         1 <0>        0.00000
     34 H7         -1.5250    0.0359    0.0000 H         1 <0>        0.00000
     35 H8          1.1446    2.3966    0.0000 H         1 <0>        0.00000
     36 H9          1.1446    2.3966    0.0000 H         1 <0>        0.00000
     37 H10         0.1146   -0.6941    0.0000 H         1 <0>        0.00000
     38 H11         0.1146   -0.6941    0.0000 H         1 <0>        0.00000
     39 H12         1.9539    0.9620    0.0000 H         1 <0>        0.00000
     40 H13         1.9539    0.9620    0.0000 H         1 <0>        0.00000
     41 H14         1.9539    0.9620    0.0000 H         1 <0>        0.00000
     42 H15         2.2970   -0.6520    0.0000 H         1 <0>        0.00000
     43 H16         2.4685   -1.4589    0.0000 H         1 <0>        0.00000
     44 H17         1.0708   -1.7560    0.0000 H         1 <0>        0.00000
     45 H18         2.8116   -3.0729    0.0000 H         1 <0>        0.00000
     46 H19         2.8116   -3.0729    0.0000 H         1 <0>        0.00000
     47 H20         2.8116   -3.0729    0.0000 H         1 <0>        0.00000
@<TRIPOS>BOND
     1    1    2 3
     2    2    3 1
     3    3    4 1
     4    4    5 1
     5    5    6 1
     6    6    7 1
     7    6   16 1
     8    7    8 ar
     9    7    9 ar
    10    8   13 ar
    11    9   10 ar
    12    9   15 1
    13   10   11 1
    14   10   12 ar
    15   12   13 ar
    16   13   14 1
    17   15   16 2
    18   16   17 1
    19   17   18 1
    20   18   19 ar
    21   18   25 ar
    22   19   20 1
    23   19   22 ar
    24   20   21 1
    25   22   23 ar
    26   23   24 ar
    27   24   25 ar
    28   24   26 1
    29   26   27 1
    30    1   28 1
    31    3   29 1
    32    3   30 1
    33    4   31 1
    34    4   32 1
    35    5   33 1
    36    5   34 1
    37   11   35 1
    38   11   36 1
    39   17   37 1
    40   17   38 1
    41   21   39 1
    42   21   40 1
    43   21   41 1
    44   22   42 1
    45   23   43 1
    46   25   44 1
    47   27   45 1
    48   27   46 1
    49   27   47 1
@<TRIPOS>SUBSTRUCTURE
     1 <0>         1 GROUP 0 A     ****
@<TRIPOS>MOLECULE
697
   24    26     1     0     0
SMALL
NO_CHARGES

@<TRIPOS>ATOM
      1 Cl1         2.2413   -0.3751    0.0000 Cl        1 <0>        0.00000
      2 S1          5.6469   -1.2002    0.0000 S.3       1 <0>        0.00000
      3 N1          2.8695    1.6829    0.0000 N.pl3     1 <0>        0.00000
      4 N2          3.6703    0.4499    0.0000 N.pl3     1 <0>        0.00000
      5 N3          2.2021    0.5269    0.0000 N.2       1 <0>        0.00000
      6 N4          5.1654   -0.5363    0.0000 N.ar      1 <0>        0.00000
      7 N5          5.1654   -1.8640    0.0000 N.ar      1 <0>        0.00000
      8 C1          2.0625    1.8544    0.0000 C.3       1 <0>        0.00000
      9 C2          1.6500    1.1399    0.0000 C.3       1 <0>        0.00000
     10 C3          2.9558    0.8624    0.0000 C.2       1 <0>        0.00000
     11 C4          3.6703   -0.3751    0.0000 C.ar      1 <0>        0.00000
     12 C5          4.3847   -0.7876    0.0000 C.ar      1 <0>        0.00000
     13 C6          4.3847   -1.6127    0.0000 C.ar      1 <0>        0.00000
     14 C7          2.9558   -0.7876    0.0000 C.ar      1 <0>        0.00000
     15 C8          3.6703   -2.0252    0.0000 C.ar      1 <0>        0.00000
     16 C9          2.9558   -1.6127    0.0000 C.ar      1 <0>        0.00000
     17 H1          2.8695    1.6829    0.0000 H         1 <0>        0.00000
     18 H2          3.6703    0.4499    0.0000 H         1 <0>        0.00000
     19 H3          2.0625    1.8544    0.0000 H         1 <0>        0.00000
     20 H4          2.0625    1.8544    0.0000 H         1 <0>        0.00000
     21 H5          1.6500    1.1399    0.0000 H         1 <0>        0.00000
     22 H6          1.6500    1.1399    0.0000 H         1 <0>        0.00000
     23 H7          3.6703   -2.0252    0.0000 H         1 <0>        0.00000
     24 H8          2.9558   -1.6127    0.0000 H         1 <0>        0.00000
@<TRIPOS>BOND
     1    1   14 1
     2    2    6 1
     3    2    7 1
     4    3    8 1
     5    3   10 1
     6    4   10 1
     7    4   11 1
     8    5    9 1
     9    5   10 2
    10    6   12 2
    11    7   13 2
    12    8    9 1
    13   11   12 ar
    14   11   14 ar
    15   12   13 ar
    16   13   15 ar
    17   14   16 ar
    18   15   16 ar
    19    3   17 1
    20    4   18 1
    21    8   19 1
    22    8   20 1
    23    9   21 1
    24    9   22 1
    25   15   23 1
    26   16   24 1
@<TRIPOS>SUBSTRUCTURE
     1 <0>         1 GROUP 0 A     ****
@<TRIPOS>MOLECULE
528
   66    67     1     0     0
SMALL
NO_CHARGES

@<TRIPOS>ATOM
      1 C1         -4.9492    1.1198    0.0000 C.ar      1 <0>        0.00000
      2 C2         -5.6952    0.7674    0.0000 C.ar      1 <0>        0.00000
      3 C3         -5.7630   -0.0548    0.0000 C.ar      1 <0>        0.00000
      4 C4         -5.0848   -0.5246    0.0000 C.ar      1 <0>        0.00000
      5 C5         -4.3389   -0.1723    0.0000 C.ar      1 <0>        0.00000
      6 C6         -4.2711    0.6500    0.0000 C.ar      1 <0>        0.00000
      7 C7         -3.5251    1.0023    0.0000 C.3       1 <0>        0.00000
      8 C8         -2.8470    0.5325    0.0000 C.3       1 <0>        0.00000
      9 C9         -2.1010    0.8849    0.0000 C.3       1 <0>        0.00000
     10 S1         -1.4229    0.4150    0.0000 S.o2      1 <0>        0.00000
     11 O1         -1.8927   -0.2631    0.0000 O.2       1 <0>        0.00000
     12 O2         -0.9530    1.0932    0.0000 O.2       1 <0>        0.00000
     13 N1         -0.7447   -0.0548    0.0000 N.pl3     1 <0>        0.00000
     14 C10         0.0013    0.2976    0.0000 C.3       1 <0>        0.00000
     15 C11         0.0691    1.1198    0.0000 C.3       1 <0>        0.00000
     16 C12         0.8150    1.4722    0.0000 C.3       1 <0>        0.00000
     17 C13        -0.6091    1.5896    0.0000 C.3       1 <0>        0.00000
     18 P1          0.6794   -0.1723    0.0000 P.3       1 <0>        0.00000
     19 O3          0.2096   -0.8504    0.0000 O.2       1 <0>        0.00000
     20 O4          1.1492    0.5059    0.0000 O.3       1 <0>        0.00000
     21 C14         1.3575   -0.6421    0.0000 C.3       1 <0>        0.00000
     22 C15         2.1035   -0.2897    0.0000 C.3       1 <0>        0.00000
     23 C16         2.1713    0.5325    0.0000 C.2       1 <0>        0.00000
     24 O5          1.4932    1.0023    0.0000 O.2       1 <0>        0.00000
     25 O6          2.9173    0.8849    0.0000 O.3       1 <0>        0.00000
     26 C17         2.7816   -0.7595    0.0000 C.ar      1 <0>        0.00000
     27 C18         3.5276   -0.4072    0.0000 C.ar      1 <0>        0.00000
     28 C19         2.7138   -1.5818    0.0000 C.ar      1 <0>        0.00000
     29 C20         3.3920   -2.0516    0.0000 C.ar      1 <0>        0.00000
     30 C21         4.1379   -1.6992    0.0000 C.ar      1 <0>        0.00000
     31 C22         4.2058   -0.8770    0.0000 C.ar      1 <0>        0.00000
     32 C23         4.9517   -0.5246    0.0000 C.3       1 <0>        0.00000
     33 N2          5.0195    0.2976    0.0000 N.3       1 <0>        0.00000
     34 H1         -0.4787    0.6301    0.0000 H         1 <0>        0.00000
     35 H2          2.0555   -0.8717    0.0000 H         1 <0>        0.00000
     36 H3         -4.9492    1.1198    0.0000 H         1 <0>        0.00000
     37 H4         -5.6952    0.7674    0.0000 H         1 <0>        0.00000
     38 H5         -5.7630   -0.0548    0.0000 H         1 <0>        0.00000
     39 H6         -5.0848   -0.5246    0.0000 H         1 <0>        0.00000
     40 H7         -4.3389   -0.1723    0.0000 H         1 <0>        0.00000
     41 H8         -3.5251    1.0023    0.0000 H         1 <0>        0.00000
     42 H9         -3.5251    1.0023    0.0000 H         1 <0>        0.00000
     43 H10        -2.8470    0.5325    0.0000 H         1 <0>        0.00000
     44 H11        -2.8470    0.5325    0.0000 H         1 <0>        0.00000
     45 H12        -2.1010    0.8849    0.0000 H         1 <0>        0.00000
     46 H13        -2.1010    0.8849    0.0000 H         1 <0>        0.00000
     47 H14        -0.7447   -0.0548    0.0000 H         1 <0>        0.00000
     48 H15         0.0691    1.1198    0.0000 H         1 <0>        0.00000
     49 H16         0.8150    1.4722    0.0000 H         1 <0>        0.00000
     50 H17         0.8150    1.4722    0.0000 H         1 <0>        0.00000
     51 H18         0.8150    1.4722    0.0000 H         1 <0>        0.00000
     52 H19        -0.6091    1.5896    0.0000 H         1 <0>        0.00000
     53 H20        -0.6091    1.5896    0.0000 H         1 <0>        0.00000
     54 H21        -0.6091    1.5896    0.0000 H         1 <0>        0.00000
     55 H22         1.1492    0.5059    0.0000 H         1 <0>        0.00000
     56 H23         1.3575   -0.6421    0.0000 H         1 <0>        0.00000
     57 H24         1.3575   -0.6421    0.0000 H         1 <0>        0.00000
     58 H25         2.9173    0.8849    0.0000 H         1 <0>        0.00000
     59 H26         3.5276   -0.4072    0.0000 H         1 <0>        0.00000
     60 H27         2.7138   -1.5818    0.0000 H         1 <0>        0.00000
     61 H28         3.3920   -2.0516    0.0000 H         1 <0>        0.00000
     62 H29         4.1379   -1.6992    0.0000 H         1 <0>        0.00000
     63 H30         4.9517   -0.5246    0.0000 H         1 <0>        0.00000
     64 H31         4.9517   -0.5246    0.0000 H         1 <0>        0.00000
     65 H32         5.0195    0.2976    0.0000 H         1 <0>        0.00000
     66 H33         5.0195    0.2976    0.0000 H         1 <0>        0.00000
@<TRIPOS>BOND
     1    1    6 ar
     2    1    2 ar
     3    2    3 ar
     4    3    4 ar
     5    4    5 ar
     6    5    6 ar
     7    6    7 1
     8    7    8 1
     9    8    9 1
    10    9   10 1
    11   10   13 1
    12   10   11 2
    13   10   12 2
    14   13   14 1
    15   14   15 1
    16   14   18 1
    17   14   34 1
    18   15   16 1
    19   15   17 1
    20   18   19 2
    21   18   21 1
    22   18   20 1
    23   21   22 1
    24   22   26 1
    25   22   23 1
    26   22   35 1
    27   23   24 2
    28   23   25 1
    29   26   27 ar
    30   26   28 ar
    31   27   31 ar
    32   28   29 ar
    33   29   30 ar
    34   30   31 ar
    35   31   32 1
    36   32   33 1
    37    1   36 1
    38    2   37 1
    39    3   38 1
    40    4   39 1
    41    5   40 1
    42    7   41 1
    43    7   42 1
    44    8   43 1
    45    8   44 1
    46    9   45 1
    47    9   46 1
    48   13   47 1
    49   15   48 1
    50   16   49 1
    51   16   50 1
    52   16   51 1
    53   17   52 1
    54   17   53 1
    55   17   54 1
    56   20   55 1
    57   21   56 1
    58   21   57 1
    59   25   58 1
    60   27   59 1
    61   28   60 1
    62   29   61 1
    63   30   62 1
    64   32   63 1
    65   32   64 1
    66   33   65 1
    67   33   66 1
@<TRIPOS>SUBSTRUCTURE
     1 <0>         1 GROUP 0 A     ****
@<TRIPOS>MOLECULE
MiniDrugBank_118
   11    11     1     0     0
SMALL
NO_CHARGES

@<TRIPOS>ATOM
      1 O1          2.1913    1.6913    0.0000 O.3       1 <0>        0.00000
      2 C1          2.0198    0.8843    0.0000 C.2       1 <0>        0.00000
      3 O2          2.6329    0.3323    0.0000 O.2       1 <0>        0.00000
      4 C2          1.2352    0.6294    0.0000 C.ar      1 <0>        0.00000
      5 N1          0.9803   -0.1553    0.0000 N.ar      1 <0>        0.00000
      6 S1          0.1553   -0.1553    0.0000 S.3       1 <0>        0.00000
      7 N2         -0.0997    0.6294    0.0000 N.ar      1 <0>        0.00000
      8 C3          0.5678    1.1143    0.0000 C.ar      1 <0>        0.00000
      9 O3          0.5678    1.9393    0.0000 O.3       1 <0>        0.00000
     10 H1          2.1913    1.6913    0.0000 H         1 <0>        0.00000
     11 H2          0.5678    1.9393    0.0000 H         1 <0>        0.00000
@<TRIPOS>BOND
     1    1    2 1
     2    2    3 2
     3    2    4 1
     4    4    5 2
     5    5    6 1
     6    6    7 1
     7    7    8 2
     8    4    8 1
     9    8    9 1
    10    1   10 1
    11    9   11 1
@<TRIPOS>SUBSTRUCTURE
     1 <0>         1 GROUP 0 A     ****
@<TRIPOS>MOLECULE
717
   48    51     1     0     0
SMALL
NO_CHARGES

@<TRIPOS>ATOM
      1 O1          6.6263    1.5550    0.0000 O.3       1 <0>        0.00000
      2 O2          1.6500   -1.9996    0.0000 O.2       1 <0>        0.00000
      3 C1          6.0993   -0.3064    0.0000 C.3       1 <0>        0.00000
      4 C2          6.0993    0.5186    0.0000 C.3       1 <0>        0.00000
      5 C3          5.3849   -0.7189    0.0000 C.3       1 <0>        0.00000
      6 C4          4.6703   -0.3064    0.0000 C.3       1 <0>        0.00000
      7 C5          5.3849    0.9311    0.0000 C.3       1 <0>        0.00000
      8 C6          6.8799    0.7700    0.0000 C.3       1 <0>        0.00000
      9 C7          6.8799   -0.5579    0.0000 C.3       1 <0>        0.00000
     10 C8          4.6703    0.5186    0.0000 C.3       1 <0>        0.00000
     11 C9          3.9196   -0.7246    0.0000 C.3       1 <0>        0.00000
     12 C10         7.3614    0.1061    0.0000 C.3       1 <0>        0.00000
     13 C11         5.3981   -1.5782    0.0000 C.3       1 <0>        0.00000
     14 C12         6.0993    1.3436    0.0000 C.3       1 <0>        0.00000
     15 C13         4.6572   -2.0136    0.0000 C.3       1 <0>        0.00000
     16 C14         3.9130   -1.5839    0.0000 C.2       1 <0>        0.00000
     17 C15         3.1550   -0.2592    0.0000 C.3       1 <0>        0.00000
     18 C16         7.5482    1.2538    0.0000 C.1       1 <0>        0.00000
     19 C17         2.3729   -0.6948    0.0000 C.3       1 <0>        0.00000
     20 C18         3.1413   -2.0374    0.0000 C.2       1 <0>        0.00000
     21 C19         2.3660   -1.5899    0.0000 C.2       1 <0>        0.00000
     22 C20         8.2165    1.7375    0.0000 C.1       1 <0>        0.00000
     23 H1          6.1691   -0.9628    0.0000 H         1 <0>        0.00000
     24 H2          5.9589   -1.0445    0.0000 H         1 <0>        0.00000
     25 H3          5.2420    0.0236    0.0000 H         1 <0>        0.00000
     26 H4          3.9323   -0.0647    0.0000 H         1 <0>        0.00000
     27 H5          6.6263    1.5550    0.0000 H         1 <0>        0.00000
     28 H6          5.3849    0.9311    0.0000 H         1 <0>        0.00000
     29 H7          5.3849    0.9311    0.0000 H         1 <0>        0.00000
     30 H8          6.8799   -0.5579    0.0000 H         1 <0>        0.00000
     31 H9          6.8799   -0.5579    0.0000 H         1 <0>        0.00000
     32 H10         4.6703    0.5186    0.0000 H         1 <0>        0.00000
     33 H11         4.6703    0.5186    0.0000 H         1 <0>        0.00000
     34 H12         7.3614    0.1061    0.0000 H         1 <0>        0.00000
     35 H13         7.3614    0.1061    0.0000 H         1 <0>        0.00000
     36 H14         5.3981   -1.5782    0.0000 H         1 <0>        0.00000
     37 H15         5.3981   -1.5782    0.0000 H         1 <0>        0.00000
     38 H16         6.0993    1.3436    0.0000 H         1 <0>        0.00000
     39 H17         6.0993    1.3436    0.0000 H         1 <0>        0.00000
     40 H18         6.0993    1.3436    0.0000 H         1 <0>        0.00000
     41 H19         4.6572   -2.0136    0.0000 H         1 <0>        0.00000
     42 H20         4.6572   -2.0136    0.0000 H         1 <0>        0.00000
     43 H21         3.1550   -0.2592    0.0000 H         1 <0>        0.00000
     44 H22         3.1550   -0.2592    0.0000 H         1 <0>        0.00000
     45 H23         2.3729   -0.6948    0.0000 H         1 <0>        0.00000
     46 H24         2.3729   -0.6948    0.0000 H         1 <0>        0.00000
     47 H25         3.1413   -2.0374    0.0000 H         1 <0>        0.00000
     48 H26         8.2165    1.7375    0.0000 H         1 <0>        0.00000
@<TRIPOS>BOND
     1    1    8 1
     2    2   21 2
     3    3    4 1
     4    3    5 1
     5    3    9 1
     6    3   23 1
     7    4    7 1
     8    4    8 1
     9    4   14 1
    10    5    6 1
    11    5   13 1
    12    5   24 1
    13    6   10 1
    14    6   11 1
    15    6   25 1
    16    7   10 1
    17    8   12 1
    18    8   18 1
    19    9   12 1
    20   11   16 1
    21   11   17 1
    22   11   26 1
    23   13   15 1
    24   15   16 1
    25   16   20 2
    26   17   19 1
    27   18   22 3
    28   19   21 1
    29   20   21 1
    30    1   27 1
    31    7   28 1
    32    7   29 1
    33    9   30 1
    34    9   31 1
    35   10   32 1
    36   10   33 1
    37   12   34 1
    38   12   35 1
    39   13   36 1
    40   13   37 1
    41   14   38 1
    42   14   39 1
    43   14   40 1
    44   15   41 1
    45   15   42 1
    46   17   43 1
    47   17   44 1
    48   19   45 1
    49   19   46 1
    50   20   47 1
    51   22   48 1
@<TRIPOS>SUBSTRUCTURE
     1 <0>         1 GROUP 0 A     ****
@<TRIPOS>MOLECULE
MiniDrugBank_120
   35    38     1     0     0
SMALL
NO_CHARGES

@<TRIPOS>ATOM
      1 N1         -5.5064   -0.2349    0.0000 N.pl3     1 <0>        0.00000
      2 C1         -4.7919   -0.6474    0.0000 C.ar      1 <0>        0.00000
      3 N2         -4.0774   -0.2349    0.0000 N.ar      1 <0>        0.00000
      4 C2         -3.3629   -0.6474    0.0000 C.ar      1 <0>        0.00000
      5 C3         -3.3629   -1.4724    0.0000 C.ar      1 <0>        0.00000
      6 N3         -2.5783   -1.7273    0.0000 N.ar      1 <0>        0.00000
      7 C4         -2.0934   -1.0599    0.0000 C.ar      1 <0>        0.00000
      8 N4         -2.5783   -0.3925    0.0000 N.pl3     1 <0>        0.00000
      9 C5         -2.3234    0.3922    0.0000 C.3       1 <0>        0.00000
     10 O1         -2.8083    1.0596    0.0000 O.3       1 <0>        0.00000
     11 C6         -2.3234    1.7270    0.0000 C.3       1 <0>        0.00000
     12 C7         -2.5783    2.5117    0.0000 C.3       1 <0>        0.00000
     13 O2         -3.3853    2.6832    0.0000 O.3       1 <0>        0.00000
     14 C8         -1.5388    1.4721    0.0000 C.3       1 <0>        0.00000
     15 O3         -0.7541    1.7270    0.0000 O.3       1 <0>        0.00000
     16 P1         -0.2692    1.0596    0.0000 P.3       1 <0>        0.00000
     17 O4          0.3439    1.6116    0.0000 O.3       1 <0>        0.00000
     18 S1          0.3439    0.5076    0.0000 S.2       1 <0>        0.00000
     19 O5         -0.7541    0.3922    0.0000 O.3       1 <0>        0.00000
     20 C9         -1.5388    0.6471    0.0000 C.3       1 <0>        0.00000
     21 C10        -4.0774   -1.8849    0.0000 C.ar      1 <0>        0.00000
     22 O6         -4.0774   -2.7099    0.0000 O.2       1 <0>        0.00000
     23 N5         -4.7919   -1.4724    0.0000 N.am      1 <0>        0.00000
     24 H1         -5.5064   -0.2349    0.0000 H         1 <0>        0.00000
     25 H2         -5.5064   -0.2349    0.0000 H         1 <0>        0.00000
     26 H3         -2.0934   -1.0599    0.0000 H         1 <0>        0.00000
     27 H4         -2.3234    0.3922    0.0000 H         1 <0>        0.00000
     28 H5         -2.3234    1.7270    0.0000 H         1 <0>        0.00000
     29 H6         -2.5783    2.5117    0.0000 H         1 <0>        0.00000
     30 H7         -2.5783    2.5117    0.0000 H         1 <0>        0.00000
     31 H8         -3.3853    2.6832    0.0000 H         1 <0>        0.00000
     32 H9         -1.5388    1.4721    0.0000 H         1 <0>        0.00000
     33 H10         0.3439    1.6116    0.0000 H         1 <0>        0.00000
     34 H11        -1.5388    0.6471    0.0000 H         1 <0>        0.00000
     35 H12        -4.7919   -1.4724    0.0000 H         1 <0>        0.00000
@<TRIPOS>BOND
     1    1    2 1
     2    2    3 2
     3    3    4 1
     4    4    5 2
     5    5    6 1
     6    6    7 2
     7    7    8 1
     8    4    8 1
     9    8    9 1
    10    9   10 1
    11   10   11 1
    12   11   12 1
    13   12   13 1
    14   11   14 1
    15   14   15 1
    16   15   16 1
    17   16   17 1
    18   16   18 2
    19   16   19 1
    20   19   20 1
    21    9   20 1
    22   14   20 1
    23    5   21 1
    24   21   22 2
    25   21   23 am
    26    2   23 1
    27    1   24 1
    28    1   25 1
    29    7   26 1
    30    9   27 1
    31   11   28 1
    32   12   29 1
    33   12   30 1
    34   13   31 1
    35   14   32 1
    36   17   33 1
    37   20   34 1
    38   23   35 1
@<TRIPOS>SUBSTRUCTURE
     1 <0>         1 GROUP 0 A     ****
@<TRIPOS>MOLECULE
MiniDrugBank_121
  107   111     1     0     0
SMALL
NO_CHARGES

@<TRIPOS>ATOM
      1 C1         11.4117    6.5906    0.0000 C.3       1 <0>        0.00000
      2 O1         12.1262    6.1781    0.0000 O.3       1 <0>        0.00000
      3 C2         12.1262    5.3531    0.0000 C.ar      1 <0>        0.00000
      4 C3         12.8407    4.9406    0.0000 C.ar      1 <0>        0.00000
      5 C4         12.8407    4.1156    0.0000 C.ar      1 <0>        0.00000
      6 C5         13.5551    3.7031    0.0000 C.2       1 <0>        0.00000
      7 C6         13.5551    2.8781    0.0000 C.2       1 <0>        0.00000
      8 C7         14.2696    2.4656    0.0000 C.2       1 <0>        0.00000
      9 O2         14.2696    1.6406    0.0000 O.2       1 <0>        0.00000
     10 S1         14.9841    2.8781    0.0000 S.3       1 <0>        0.00000
     11 C8         15.6986    2.4656    0.0000 C.3       1 <0>        0.00000
     12 C9         16.4130    2.8781    0.0000 C.3       1 <0>        0.00000
     13 N1         17.1275    2.4656    0.0000 N.am      1 <0>        0.00000
     14 C10        17.8420    2.8781    0.0000 C.2       1 <0>        0.00000
     15 O3         17.8420    3.7031    0.0000 O.2       1 <0>        0.00000
     16 C11        18.5564    2.4656    0.0000 C.3       1 <0>        0.00000
     17 C12        19.2709    2.8781    0.0000 C.3       1 <0>        0.00000
     18 N2         19.9854    2.4656    0.0000 N.am      1 <0>        0.00000
     19 C13        20.6998    2.8781    0.0000 C.2       1 <0>        0.00000
     20 O4         20.6998    3.7031    0.0000 O.2       1 <0>        0.00000
     21 C14        21.4143    2.4656    0.0000 C.3       1 <0>        0.00000
     22 O5         21.1322    1.6904    0.0000 O.3       1 <0>        0.00000
     23 C15        21.9446    3.0976    0.0000 C.3       1 <0>        0.00000
     24 O6         22.0879    3.9101    0.0000 O.3       1 <0>        0.00000
     25 P1         22.8631    4.1922    0.0000 P.3       1 <0>        0.00000
     26 O7         23.1453    3.4170    0.0000 O.3       1 <0>        0.00000
     27 O8         22.5810    4.9675    0.0000 O.2       1 <0>        0.00000
     28 O9         23.6384    4.4744    0.0000 O.3       1 <0>        0.00000
     29 P2         24.2704    3.9441    0.0000 P.3       1 <0>        0.00000
     30 O10        23.7401    3.3121    0.0000 O.3       1 <0>        0.00000
     31 O11        24.8007    4.5761    0.0000 O.2       1 <0>        0.00000
     32 O12        24.9023    3.4138    0.0000 O.3       1 <0>        0.00000
     33 C16        25.6776    3.6960    0.0000 C.3       1 <0>        0.00000
     34 C17        26.3096    3.1657    0.0000 C.3       1 <0>        0.00000
     35 O13        27.1101    3.3652    0.0000 O.3       1 <0>        0.00000
     36 C18        27.5473    2.6656    0.0000 C.3       1 <0>        0.00000
     37 C19        27.0170    2.0336    0.0000 C.3       1 <0>        0.00000
     38 O14        27.2165    1.2331    0.0000 O.3       1 <0>        0.00000
     39 C20        26.2520    2.3427    0.0000 C.3       1 <0>        0.00000
     40 O15        25.5524    1.9055    0.0000 O.3       1 <0>        0.00000
     41 P3         24.8240    2.2928    0.0000 P.3       1 <0>        0.00000
     42 O16        25.2113    3.0212    0.0000 O.3       1 <0>        0.00000
     43 O17        24.4366    1.5644    0.0000 O.3       1 <0>        0.00000
     44 O18        24.0955    2.6801    0.0000 O.2       1 <0>        0.00000
     45 N3         28.3702    2.6081    0.0000 N.pl3     1 <0>        0.00000
     46 C21        28.9005    3.2400    0.0000 C.ar      1 <0>        0.00000
     47 N4         29.6655    2.9310    0.0000 N.ar      1 <0>        0.00000
     48 C22        29.6079    2.1080    0.0000 C.ar      1 <0>        0.00000
     49 C23        30.1810    1.5145    0.0000 C.ar      1 <0>        0.00000
     50 N5         30.9815    1.7141    0.0000 N.pl3     1 <0>        0.00000
     51 N6         29.9536    0.7215    0.0000 N.ar      1 <0>        0.00000
     52 C24        29.1531    0.5219    0.0000 C.ar      1 <0>        0.00000
     53 N7         28.5800    1.1154    0.0000 N.ar      1 <0>        0.00000
     54 C25        28.8074    1.9084    0.0000 C.ar      1 <0>        0.00000
     55 C26        22.2268    2.3223    0.0000 C.3       1 <0>        0.00000
     56 C27        23.0486    2.2504    0.0000 C.3       1 <0>        0.00000
     57 C28        22.4403    1.5255    0.0000 C.3       1 <0>        0.00000
     58 C29        12.1262    3.7031    0.0000 C.ar      1 <0>        0.00000
     59 C30        11.4117    4.1156    0.0000 C.ar      1 <0>        0.00000
     60 O19        10.6973    3.7031    0.0000 O.3       1 <0>        0.00000
     61 C31         9.9828    4.1156    0.0000 C.3       1 <0>        0.00000
     62 C32        11.4117    4.9406    0.0000 C.ar      1 <0>        0.00000
     63 O20        10.6973    5.3531    0.0000 O.3       1 <0>        0.00000
     64 H1         11.4117    6.5906    0.0000 H         1 <0>        0.00000
     65 H2         11.4117    6.5906    0.0000 H         1 <0>        0.00000
     66 H3         11.4117    6.5906    0.0000 H         1 <0>        0.00000
     67 H4         12.8407    4.9406    0.0000 H         1 <0>        0.00000
     68 H5         13.5551    3.7031    0.0000 H         1 <0>        0.00000
     69 H6         13.5551    2.8781    0.0000 H         1 <0>        0.00000
     70 H7         15.6986    2.4656    0.0000 H         1 <0>        0.00000
     71 H8         15.6986    2.4656    0.0000 H         1 <0>        0.00000
     72 H9         16.4130    2.8781    0.0000 H         1 <0>        0.00000
     73 H10        16.4130    2.8781    0.0000 H         1 <0>        0.00000
     74 H11        17.1275    2.4656    0.0000 H         1 <0>        0.00000
     75 H12        18.5564    2.4656    0.0000 H         1 <0>        0.00000
     76 H13        18.5564    2.4656    0.0000 H         1 <0>        0.00000
     77 H14        19.2709    2.8781    0.0000 H         1 <0>        0.00000
     78 H15        19.2709    2.8781    0.0000 H         1 <0>        0.00000
     79 H16        19.9854    2.4656    0.0000 H         1 <0>        0.00000
     80 H17        21.1322    1.6904    0.0000 H         1 <0>        0.00000
     81 H18        21.9446    3.0976    0.0000 H         1 <0>        0.00000
     82 H19        23.1453    3.4170    0.0000 H         1 <0>        0.00000
     83 H20        23.7401    3.3121    0.0000 H         1 <0>        0.00000
     84 H21        25.6776    3.6960    0.0000 H         1 <0>        0.00000
     85 H22        25.6776    3.6960    0.0000 H         1 <0>        0.00000
     86 H23        26.3096    3.1657    0.0000 H         1 <0>        0.00000
     87 H24        27.5473    2.6656    0.0000 H         1 <0>        0.00000
     88 H25        27.0170    2.0336    0.0000 H         1 <0>        0.00000
     89 H26        27.2165    1.2331    0.0000 H         1 <0>        0.00000
     90 H27        26.2520    2.3427    0.0000 H         1 <0>        0.00000
     91 H28        25.2113    3.0212    0.0000 H         1 <0>        0.00000
     92 H29        24.4366    1.5644    0.0000 H         1 <0>        0.00000
     93 H30        28.9005    3.2400    0.0000 H         1 <0>        0.00000
     94 H31        30.9815    1.7141    0.0000 H         1 <0>        0.00000
     95 H32        30.9815    1.7141    0.0000 H         1 <0>        0.00000
     96 H33        29.1531    0.5219    0.0000 H         1 <0>        0.00000
     97 H34        23.0486    2.2504    0.0000 H         1 <0>        0.00000
     98 H35        23.0486    2.2504    0.0000 H         1 <0>        0.00000
     99 H36        23.0486    2.2504    0.0000 H         1 <0>        0.00000
    100 H37        22.4403    1.5255    0.0000 H         1 <0>        0.00000
    101 H38        22.4403    1.5255    0.0000 H         1 <0>        0.00000
    102 H39        22.4403    1.5255    0.0000 H         1 <0>        0.00000
    103 H40        12.1262    3.7031    0.0000 H         1 <0>        0.00000
    104 H41         9.9828    4.1156    0.0000 H         1 <0>        0.00000
    105 H42         9.9828    4.1156    0.0000 H         1 <0>        0.00000
    106 H43         9.9828    4.1156    0.0000 H         1 <0>        0.00000
    107 H44        10.6973    5.3531    0.0000 H         1 <0>        0.00000
@<TRIPOS>BOND
     1    1    2 1
     2    2    3 1
     3    3    4 ar
     4    4    5 ar
     5    5    6 1
     6    6    7 2
     7    7    8 1
     8    8    9 2
     9    8   10 1
    10   10   11 1
    11   11   12 1
    12   12   13 1
    13   13   14 am
    14   14   15 2
    15   14   16 1
    16   16   17 1
    17   17   18 1
    18   18   19 am
    19   19   20 2
    20   19   21 1
    21   21   22 1
    22   21   23 1
    23   23   24 1
    24   24   25 1
    25   25   26 1
    26   25   27 2
    27   25   28 1
    28   28   29 1
    29   29   30 1
    30   29   31 2
    31   29   32 1
    32   32   33 1
    33   33   34 1
    34   34   35 1
    35   35   36 1
    36   36   37 1
    37   37   38 1
    38   37   39 1
    39   34   39 1
    40   39   40 1
    41   40   41 1
    42   41   42 1
    43   41   43 1
    44   41   44 2
    45   36   45 1
    46   45   46 1
    47   46   47 2
    48   47   48 1
    49   48   49 ar
    50   49   50 1
    51   49   51 ar
    52   51   52 ar
    53   52   53 ar
    54   53   54 ar
    55   45   54 1
    56   48   54 ar
    57   23   55 1
    58   21   55 1
    59   55   56 1
    60   55   57 1
    61    5   58 ar
    62   58   59 ar
    63   59   60 1
    64   60   61 1
    65   59   62 ar
    66    3   62 ar
    67   62   63 1
    68    1   64 1
    69    1   65 1
    70    1   66 1
    71    4   67 1
    72    6   68 1
    73    7   69 1
    74   11   70 1
    75   11   71 1
    76   12   72 1
    77   12   73 1
    78   13   74 1
    79   16   75 1
    80   16   76 1
    81   17   77 1
    82   17   78 1
    83   18   79 1
    84   22   80 1
    85   23   81 1
    86   26   82 1
    87   30   83 1
    88   33   84 1
    89   33   85 1
    90   34   86 1
    91   36   87 1
    92   37   88 1
    93   38   89 1
    94   39   90 1
    95   42   91 1
    96   43   92 1
    97   46   93 1
    98   50   94 1
    99   50   95 1
   100   52   96 1
   101   56   97 1
   102   56   98 1
   103   56   99 1
   104   57  100 1
   105   57  101 1
   106   57  102 1
   107   58  103 1
   108   61  104 1
   109   61  105 1
   110   61  106 1
   111   63  107 1
@<TRIPOS>SUBSTRUCTURE
     1 <0>         1 GROUP 0 A     ****
@<TRIPOS>MOLECULE
5I5
   32    34     1     0     0
SMALL
NO_CHARGES

@<TRIPOS>ATOM
      1 N1          2.5613    2.1647    0.0000 N.ar      1 <0>        0.00000
      2 C1          1.8468    2.5772    0.0000 C.ar      1 <0>        0.00000
      3 C2          1.1324    2.1647    0.0000 C.ar      1 <0>        0.00000
      4 C3          1.1324    1.3397    0.0000 C.ar      1 <0>        0.00000
      5 N2          1.8468    0.9272    0.0000 N.ar      1 <0>        0.00000
      6 C4          2.5613    1.3397    0.0000 C.ar      1 <0>        0.00000
      7 C5          0.3477    2.4196    0.0000 C.ar      1 <0>        0.00000
      8 C6         -0.1372    1.7522    0.0000 C.ar      1 <0>        0.00000
      9 N3          0.3477    1.0847    0.0000 N.pl3     1 <0>        0.00000
     10 I1          0.0928    3.2042    0.0000 I         1 <0>        0.00000
     11 N4          1.8468    3.4022    0.0000 N.pl3     1 <0>        0.00000
     12 C7         -0.6918   -0.7798    0.0000 C.3       1 <0>        0.00000
     13 C8         -0.6918    0.0452    0.0000 C.3       1 <0>        0.00000
     14 C9          0.0928    0.3001    0.0000 C.3       1 <0>        0.00000
     15 O1          0.5777   -0.3673    0.0000 O.3       1 <0>        0.00000
     16 C10         0.0928   -1.0348    0.0000 C.3       1 <0>        0.00000
     17 O2         -1.3593   -1.2647    0.0000 O.3       1 <0>        0.00000
     18 O3         -1.3593    0.5301    0.0000 O.3       1 <0>        0.00000
     19 C11         0.3477   -1.8194    0.0000 C.3       1 <0>        0.00000
     20 H1         -1.2121   -0.5147    0.0000 H         1 <0>        0.00000
     21 H2         -1.2121   -0.2199    0.0000 H         1 <0>        0.00000
     22 H3         -0.3201    0.7130    0.0000 H         1 <0>        0.00000
     23 H4         -0.3201   -1.4477    0.0000 H         1 <0>        0.00000
     24 H5          2.5613    1.3397    0.0000 H         1 <0>        0.00000
     25 H6         -0.1372    1.7522    0.0000 H         1 <0>        0.00000
     26 H7          1.8468    3.4022    0.0000 H         1 <0>        0.00000
     27 H8          1.8468    3.4022    0.0000 H         1 <0>        0.00000
     28 H9         -1.3593   -1.2647    0.0000 H         1 <0>        0.00000
     29 H10        -1.3593    0.5301    0.0000 H         1 <0>        0.00000
     30 H11         0.3477   -1.8194    0.0000 H         1 <0>        0.00000
     31 H12         0.3477   -1.8194    0.0000 H         1 <0>        0.00000
     32 H13         0.3477   -1.8194    0.0000 H         1 <0>        0.00000
@<TRIPOS>BOND
     1    1    6 ar
     2    1    2 ar
     3    2   11 1
     4    2    3 ar
     5    3    4 ar
     6    3    7 1
     7    4    5 ar
     8    4    9 1
     9    5    6 ar
    10    7    8 2
    11    7   10 1
    12    8    9 1
    13    9   14 1
    14   12   17 1
    15   12   13 1
    16   12   16 1
    17   12   20 1
    18   13   18 1
    19   13   14 1
    20   13   21 1
    21   14   15 1
    22   14   22 1
    23   15   16 1
    24   16   19 1
    25   16   23 1
    26    6   24 1
    27    8   25 1
    28   11   26 1
    29   11   27 1
    30   17   28 1
    31   18   29 1
    32   19   30 1
    33   19   31 1
    34   19   32 1
@<TRIPOS>SUBSTRUCTURE
     1 <0>         1 GROUP 0 A     ****
@<TRIPOS>MOLECULE
MiniDrugBank_123
   26    25     1     0     0
SMALL
NO_CHARGES

@<TRIPOS>ATOM
      1 Br1         6.9534    2.1582    0.0000 Br        1 <0>        0.00000
      2 F1          4.8099    0.9207    0.0000 F         1 <0>        0.00000
      3 F2          5.6350   -0.5082    0.0000 F         1 <0>        0.00000
      4 F3          4.0955    0.5082    0.0000 F         1 <0>        0.00000
      5 F4          4.9205   -0.9207    0.0000 F         1 <0>        0.00000
      6 F5          6.3495   -0.0957    0.0000 F         1 <0>        0.00000
      7 F6          5.5245    1.3332    0.0000 F         1 <0>        0.00000
      8 F7          3.3810    0.0957    0.0000 F         1 <0>        0.00000
      9 F8          4.2060   -1.3332    0.0000 F         1 <0>        0.00000
     10 F9          6.2390    1.7457    0.0000 F         1 <0>        0.00000
     11 F10         7.0640    0.3168    0.0000 F         1 <0>        0.00000
     12 F11         3.4916   -1.7457    0.0000 F         1 <0>        0.00000
     13 F12         2.6665   -0.3168    0.0000 F         1 <0>        0.00000
     14 F13         8.0804    1.8563    0.0000 F         1 <0>        0.00000
     15 F14         7.7784    0.7293    0.0000 F         1 <0>        0.00000
     16 F15         1.6500   -1.8563    0.0000 F         1 <0>        0.00000
     17 F16         1.9520   -0.7293    0.0000 F         1 <0>        0.00000
     18 F17         2.7770   -2.1582    0.0000 F         1 <0>        0.00000
     19 C1          5.2224    0.2063    0.0000 C.3       1 <0>        0.00000
     20 C2          4.5080   -0.2063    0.0000 C.3       1 <0>        0.00000
     21 C3          5.9370    0.6188    0.0000 C.3       1 <0>        0.00000
     22 C4          3.7935   -0.6188    0.0000 C.3       1 <0>        0.00000
     23 C5          6.6515    1.0313    0.0000 C.3       1 <0>        0.00000
     24 C6          3.0791   -1.0313    0.0000 C.3       1 <0>        0.00000
     25 C7          7.3659    1.4438    0.0000 C.3       1 <0>        0.00000
     26 C8          2.3645   -1.4438    0.0000 C.3       1 <0>        0.00000
@<TRIPOS>BOND
     1    1   25 1
     2    2   19 1
     3    3   19 1
     4    4   20 1
     5    5   20 1
     6    6   21 1
     7    7   21 1
     8    8   22 1
     9    9   22 1
    10   10   23 1
    11   11   23 1
    12   12   24 1
    13   13   24 1
    14   14   25 1
    15   15   25 1
    16   16   26 1
    17   17   26 1
    18   18   26 1
    19   19   20 1
    20   19   21 1
    21   20   22 1
    22   21   23 1
    23   22   24 1
    24   23   25 1
    25   24   26 1
@<TRIPOS>SUBSTRUCTURE
     1 <0>         1 GROUP 0 A     ****
@<TRIPOS>MOLECULE
698
   62    64     1     0     0
SMALL
NO_CHARGES

@<TRIPOS>ATOM
      1 O1         -0.2788    2.5553    0.0000 O.2       1 <0>        0.00000
      2 C1         -0.9933    2.1428    0.0000 C.2       1 <0>        0.00000
      3 O2         -1.7077    2.5553    0.0000 O.3       1 <0>        0.00000
      4 C2         -0.9933    1.3178    0.0000 C.3       1 <0>        0.00000
      5 C3         -1.6607    0.8329    0.0000 C.3       1 <0>        0.00000
      6 C4         -2.4453    1.0878    0.0000 C.ar      1 <0>        0.00000
      7 N1         -2.7003    1.8724    0.0000 N.ar      1 <0>        0.00000
      8 C5         -3.5253    1.8724    0.0000 C.ar      1 <0>        0.00000
      9 C6         -3.7802    1.0878    0.0000 C.ar      1 <0>        0.00000
     10 S1         -3.1128    0.6029    0.0000 S.3       1 <0>        0.00000
     11 C7         -0.3258    0.8329    0.0000 C.3       1 <0>        0.00000
     12 C8         -0.5808    0.0483    0.0000 C.3       1 <0>        0.00000
     13 C9         -0.6670   -0.7722    0.0000 C.3       1 <0>        0.00000
     14 C10         0.0004   -1.2571    0.0000 C.3       1 <0>        0.00000
     15 C11        -0.0858   -2.0776    0.0000 C.3       1 <0>        0.00000
     16 C12         0.7541   -0.9216    0.0000 C.3       1 <0>        0.00000
     17 C13         0.2262   -0.1233    0.0000 C.2       1 <0>        0.00000
     18 O3          0.8936   -0.6082    0.0000 O.2       1 <0>        0.00000
     19 O4          0.7782    0.4898    0.0000 O.3       1 <0>        0.00000
     20 N2         -1.4058    0.0483    0.0000 N.am      1 <0>        0.00000
     21 C14        -1.8907   -0.6192    0.0000 C.2       1 <0>        0.00000
     22 O5         -1.5551   -1.3728    0.0000 O.2       1 <0>        0.00000
     23 C15        -2.7112   -0.5329    0.0000 C.ar      1 <0>        0.00000
     24 C16        -3.0467    0.2207    0.0000 C.ar      1 <0>        0.00000
     25 C17        -3.8672    0.3070    0.0000 C.ar      1 <0>        0.00000
     26 C18        -3.1961   -1.2004    0.0000 C.ar      1 <0>        0.00000
     27 C19        -4.0166   -1.1141    0.0000 C.ar      1 <0>        0.00000
     28 C20        -4.3521   -0.3605    0.0000 C.ar      1 <0>        0.00000
     29 C21        -5.1726   -0.2742    0.0000 C.3       1 <0>        0.00000
     30 C22        -5.9931   -0.1880    0.0000 C.3       1 <0>        0.00000
     31 C23        -5.0864    0.5462    0.0000 C.3       1 <0>        0.00000
     32 C24        -5.2588   -1.0947    0.0000 C.3       1 <0>        0.00000
     33 H1         -1.5135    1.5829    0.0000 H         1 <0>        0.00000
     34 H2         -1.7520    1.4096    0.0000 H         1 <0>        0.00000
     35 H3         -1.7077    2.5553    0.0000 H         1 <0>        0.00000
     36 H4         -3.5253    1.8724    0.0000 H         1 <0>        0.00000
     37 H5         -3.7802    1.0878    0.0000 H         1 <0>        0.00000
     38 H6         -0.3258    0.8329    0.0000 H         1 <0>        0.00000
     39 H7         -0.3258    0.8329    0.0000 H         1 <0>        0.00000
     40 H8         -0.6670   -0.7722    0.0000 H         1 <0>        0.00000
     41 H9         -0.6670   -0.7722    0.0000 H         1 <0>        0.00000
     42 H10         0.0004   -1.2571    0.0000 H         1 <0>        0.00000
     43 H11        -0.0858   -2.0776    0.0000 H         1 <0>        0.00000
     44 H12        -0.0858   -2.0776    0.0000 H         1 <0>        0.00000
     45 H13        -0.0858   -2.0776    0.0000 H         1 <0>        0.00000
     46 H14         0.7541   -0.9216    0.0000 H         1 <0>        0.00000
     47 H15         0.7541   -0.9216    0.0000 H         1 <0>        0.00000
     48 H16         0.7541   -0.9216    0.0000 H         1 <0>        0.00000
     49 H17         0.7782    0.4898    0.0000 H         1 <0>        0.00000
     50 H18        -3.0467    0.2207    0.0000 H         1 <0>        0.00000
     51 H19        -3.8672    0.3070    0.0000 H         1 <0>        0.00000
     52 H20        -3.1961   -1.2004    0.0000 H         1 <0>        0.00000
     53 H21        -4.0166   -1.1141    0.0000 H         1 <0>        0.00000
     54 H22        -5.9931   -0.1880    0.0000 H         1 <0>        0.00000
     55 H23        -5.9931   -0.1880    0.0000 H         1 <0>        0.00000
     56 H24        -5.9931   -0.1880    0.0000 H         1 <0>        0.00000
     57 H25        -5.0864    0.5462    0.0000 H         1 <0>        0.00000
     58 H26        -5.0864    0.5462    0.0000 H         1 <0>        0.00000
     59 H27        -5.0864    0.5462    0.0000 H         1 <0>        0.00000
     60 H28        -5.2588   -1.0947    0.0000 H         1 <0>        0.00000
     61 H29        -5.2588   -1.0947    0.0000 H         1 <0>        0.00000
     62 H30        -5.2588   -1.0947    0.0000 H         1 <0>        0.00000
@<TRIPOS>BOND
     1    1    2 2
     2    2    3 1
     3    2    4 1
     4    4   33 1
     5    4    5 1
     6    4   11 1
     7    5   34 1
     8    5    6 1
     9    5   20 1
    10    6    7 2
    11    6   10 1
    12    7    8 1
    13    8    9 2
    14    9   10 1
    15   11   12 1
    16   12   13 1
    17   12   17 1
    18   12   20 1
    19   13   14 1
    20   14   15 1
    21   14   16 1
    22   17   18 2
    23   17   19 1
    24   20   21 am
    25   21   22 2
    26   21   23 1
    27   23   26 ar
    28   23   24 ar
    29   24   25 ar
    30   25   28 ar
    31   26   27 ar
    32   27   28 ar
    33   28   29 1
    34   29   30 1
    35   29   31 1
    36   29   32 1
    37    3   35 1
    38    8   36 1
    39    9   37 1
    40   11   38 1
    41   11   39 1
    42   13   40 1
    43   13   41 1
    44   14   42 1
    45   15   43 1
    46   15   44 1
    47   15   45 1
    48   16   46 1
    49   16   47 1
    50   16   48 1
    51   19   49 1
    52   24   50 1
    53   25   51 1
    54   26   52 1
    55   27   53 1
    56   30   54 1
    57   30   55 1
    58   30   56 1
    59   31   57 1
    60   31   58 1
    61   31   59 1
    62   32   60 1
    63   32   61 1
    64   32   62 1
@<TRIPOS>SUBSTRUCTURE
     1 <0>         1 GROUP 0 A     ****
@<TRIPOS>MOLECULE
699
   54    56     1     0     0
SMALL
NO_CHARGES

@<TRIPOS>ATOM
      1 F1          0.0316    4.1043    0.0000 F         1 <0>        0.00000
      2 C1         -0.1400    3.2974    0.0000 C.3       1 <0>        0.00000
      3 F2         -0.9469    3.4689    0.0000 F         1 <0>        0.00000
      4 F3          0.6670    3.1258    0.0000 F         1 <0>        0.00000
      5 C2         -0.3115    2.4904    0.0000 C.ar      1 <0>        0.00000
      6 C3          0.3016    1.9383    0.0000 C.ar      1 <0>        0.00000
      7 C4          0.1301    1.1314    0.0000 C.ar      1 <0>        0.00000
      8 C5         -1.0961    2.2354    0.0000 C.ar      1 <0>        0.00000
      9 C6         -1.2676    1.4285    0.0000 C.ar      1 <0>        0.00000
     10 C7         -0.6545    0.8764    0.0000 C.ar      1 <0>        0.00000
     11 C8         -0.8261    0.0695    0.0000 C.2       1 <0>        0.00000
     12 O1         -0.2130   -0.4826    0.0000 O.2       1 <0>        0.00000
     13 N1         -1.6107   -0.1855    0.0000 N.am      1 <0>        0.00000
     14 C9         -1.8656   -0.9701    0.0000 C.3       1 <0>        0.00000
     15 C10        -1.0587   -1.1416    0.0000 C.2       1 <0>        0.00000
     16 O2         -0.5066   -0.5285    0.0000 O.3       1 <0>        0.00000
     17 O3         -0.8037   -1.9262    0.0000 O.2       1 <0>        0.00000
     18 C11        -1.9519   -1.7906    0.0000 C.3       1 <0>        0.00000
     19 C12        -2.7055   -2.1261    0.0000 C.3       1 <0>        0.00000
     20 C13        -2.7918   -2.9466    0.0000 C.3       1 <0>        0.00000
     21 C14        -3.3730   -1.6412    0.0000 C.3       1 <0>        0.00000
     22 C15        -2.6906   -0.9701    0.0000 C.3       1 <0>        0.00000
     23 C16        -2.9456   -0.1855    0.0000 C.3       1 <0>        0.00000
     24 C17        -3.7302    0.0695    0.0000 C.2       1 <0>        0.00000
     25 O4         -4.3433   -0.4826    0.0000 O.3       1 <0>        0.00000
     26 O5         -3.9017    0.8764    0.0000 O.2       1 <0>        0.00000
     27 C18        -2.2781    0.2995    0.0000 C.3       1 <0>        0.00000
     28 C19        -2.2781    1.1245    0.0000 C.ar      1 <0>        0.00000
     29 S1         -2.9456    1.6094    0.0000 S.3       1 <0>        0.00000
     30 C20        -1.6107    1.6094    0.0000 C.ar      1 <0>        0.00000
     31 C21        -1.8656    2.3940    0.0000 C.ar      1 <0>        0.00000
     32 C22        -2.6906    2.3940    0.0000 C.ar      1 <0>        0.00000
     33 H1         -1.7578    0.5645    0.0000 H         1 <0>        0.00000
     34 H2         -3.3585   -0.5984    0.0000 H         1 <0>        0.00000
     35 H3          0.3016    1.9383    0.0000 H         1 <0>        0.00000
     36 H4          0.1301    1.1314    0.0000 H         1 <0>        0.00000
     37 H5         -1.0961    2.2354    0.0000 H         1 <0>        0.00000
     38 H6         -1.2676    1.4285    0.0000 H         1 <0>        0.00000
     39 H7         -0.5066   -0.5285    0.0000 H         1 <0>        0.00000
     40 H8         -1.9519   -1.7906    0.0000 H         1 <0>        0.00000
     41 H9         -1.9519   -1.7906    0.0000 H         1 <0>        0.00000
     42 H10        -2.7055   -2.1261    0.0000 H         1 <0>        0.00000
     43 H11        -2.7918   -2.9466    0.0000 H         1 <0>        0.00000
     44 H12        -2.7918   -2.9466    0.0000 H         1 <0>        0.00000
     45 H13        -2.7918   -2.9466    0.0000 H         1 <0>        0.00000
     46 H14        -3.3730   -1.6412    0.0000 H         1 <0>        0.00000
     47 H15        -3.3730   -1.6412    0.0000 H         1 <0>        0.00000
     48 H16        -3.3730   -1.6412    0.0000 H         1 <0>        0.00000
     49 H17        -2.6906   -0.9701    0.0000 H         1 <0>        0.00000
     50 H18        -2.6906   -0.9701    0.0000 H         1 <0>        0.00000
     51 H19        -4.3433   -0.4826    0.0000 H         1 <0>        0.00000
     52 H20        -1.6107    1.6094    0.0000 H         1 <0>        0.00000
     53 H21        -1.8656    2.3940    0.0000 H         1 <0>        0.00000
     54 H22        -2.6906    2.3940    0.0000 H         1 <0>        0.00000
@<TRIPOS>BOND
     1    1    2 1
     2    2    3 1
     3    2    4 1
     4    2    5 1
     5    5    6 ar
     6    5    8 ar
     7    6    7 ar
     8    7   10 ar
     9    8    9 ar
    10    9   10 ar
    11   10   11 1
    12   11   12 2
    13   11   13 am
    14   13   14 1
    15   13   27 1
    16   14   15 1
    17   14   18 1
    18   14   22 1
    19   15   16 1
    20   15   17 2
    21   18   19 1
    22   19   20 1
    23   19   21 1
    24   22   23 1
    25   23   24 1
    26   23   27 1
    27   23   34 1
    28   24   25 1
    29   24   26 2
    30   27   28 1
    31   27   33 1
    32   28   29 1
    33   28   30 2
    34   29   32 1
    35   30   31 1
    36   31   32 2
    37    6   35 1
    38    7   36 1
    39    8   37 1
    40    9   38 1
    41   16   39 1
    42   18   40 1
    43   18   41 1
    44   19   42 1
    45   20   43 1
    46   20   44 1
    47   20   45 1
    48   21   46 1
    49   21   47 1
    50   21   48 1
    51   22   49 1
    52   22   50 1
    53   25   51 1
    54   30   52 1
    55   31   53 1
    56   32   54 1
@<TRIPOS>SUBSTRUCTURE
     1 <0>         1 GROUP 0 A     ****
@<TRIPOS>MOLECULE
775
   66    67     1     0     0
SMALL
NO_CHARGES

@<TRIPOS>ATOM
      1 S1          7.0944    3.3001    0.0000 S.o2      1 <0>        0.00000
      2 O1          5.6655   -1.6500    0.0000 O.3       1 <0>        0.00000
      3 O2          7.5069    2.5856    0.0000 O.2       1 <0>        0.00000
      4 O3          6.6819    4.0145    0.0000 O.2       1 <0>        0.00000
      5 O4          7.8089    2.0625    0.0000 O.3       1 <0>        0.00000
      6 O5          7.0944    0.8250    0.0000 O.2       1 <0>        0.00000
      7 N1          2.0930   -5.3626    0.0000 N.3       1 <0>        0.00000
      8 N2          6.3799    2.8876    0.0000 N.pl3     1 <0>        0.00000
      9 C1          3.5220   -4.5376    0.0000 C.3       1 <0>        0.00000
     10 C2          3.5220   -5.3626    0.0000 C.3       1 <0>        0.00000
     11 C3          2.8075   -4.1251    0.0000 C.3       1 <0>        0.00000
     12 C4          4.2365   -4.1251    0.0000 C.3       1 <0>        0.00000
     13 C5          2.8075   -5.7751    0.0000 C.3       1 <0>        0.00000
     14 C6          2.0930   -4.5376    0.0000 C.3       1 <0>        0.00000
     15 C7          4.2365   -3.3001    0.0000 C.3       1 <0>        0.00000
     16 C8          4.9509   -2.8876    0.0000 C.3       1 <0>        0.00000
     17 C9          4.9509   -2.0625    0.0000 C.3       1 <0>        0.00000
     18 C10         6.3799    2.0625    0.0000 C.3       1 <0>        0.00000
     19 C11         5.6655    1.6500    0.0000 C.3       1 <0>        0.00000
     20 C12         7.8089    3.7126    0.0000 C.3       1 <0>        0.00000
     21 C13         5.6655   -0.8250    0.0000 C.ar      1 <0>        0.00000
     22 C14         7.8089    4.5376    0.0000 C.3       1 <0>        0.00000
     23 C15         5.6655    0.8250    0.0000 C.ar      1 <0>        0.00000
     24 C16         8.5234    4.9501    0.0000 C.3       1 <0>        0.00000
     25 C17         6.3799   -0.4125    0.0000 C.ar      1 <0>        0.00000
     26 C18         4.9509   -0.4125    0.0000 C.ar      1 <0>        0.00000
     27 C19         6.3799    0.4125    0.0000 C.ar      1 <0>        0.00000
     28 C20         4.9509    0.4125    0.0000 C.ar      1 <0>        0.00000
     29 C21         7.0944    1.6500    0.0000 C.2       1 <0>        0.00000
     30 C22         8.5234    5.7751    0.0000 C.3       1 <0>        0.00000
     31 H1          7.8089    2.0625    0.0000 H         1 <0>        0.00000
     32 H2          2.0930   -5.3626    0.0000 H         1 <0>        0.00000
     33 H3          6.3799    2.8876    0.0000 H         1 <0>        0.00000
     34 H4          3.5220   -4.5376    0.0000 H         1 <0>        0.00000
     35 H5          3.5220   -5.3626    0.0000 H         1 <0>        0.00000
     36 H6          3.5220   -5.3626    0.0000 H         1 <0>        0.00000
     37 H7          2.8075   -4.1251    0.0000 H         1 <0>        0.00000
     38 H8          2.8075   -4.1251    0.0000 H         1 <0>        0.00000
     39 H9          4.2365   -4.1251    0.0000 H         1 <0>        0.00000
     40 H10         4.2365   -4.1251    0.0000 H         1 <0>        0.00000
     41 H11         2.8075   -5.7751    0.0000 H         1 <0>        0.00000
     42 H12         2.8075   -5.7751    0.0000 H         1 <0>        0.00000
     43 H13         2.0930   -4.5376    0.0000 H         1 <0>        0.00000
     44 H14         2.0930   -4.5376    0.0000 H         1 <0>        0.00000
     45 H15         4.2365   -3.3001    0.0000 H         1 <0>        0.00000
     46 H16         4.2365   -3.3001    0.0000 H         1 <0>        0.00000
     47 H17         4.9509   -2.8876    0.0000 H         1 <0>        0.00000
     48 H18         4.9509   -2.8876    0.0000 H         1 <0>        0.00000
     49 H19         4.9509   -2.0625    0.0000 H         1 <0>        0.00000
     50 H20         4.9509   -2.0625    0.0000 H         1 <0>        0.00000
     51 H21         6.3799    2.0625    0.0000 H         1 <0>        0.00000
     52 H22         5.6655    1.6500    0.0000 H         1 <0>        0.00000
     53 H23         5.6655    1.6500    0.0000 H         1 <0>        0.00000
     54 H24         7.8089    3.7126    0.0000 H         1 <0>        0.00000
     55 H25         7.8089    3.7126    0.0000 H         1 <0>        0.00000
     56 H26         7.8089    4.5376    0.0000 H         1 <0>        0.00000
     57 H27         7.8089    4.5376    0.0000 H         1 <0>        0.00000
     58 H28         8.5234    4.9501    0.0000 H         1 <0>        0.00000
     59 H29         8.5234    4.9501    0.0000 H         1 <0>        0.00000
     60 H30         6.3799   -0.4125    0.0000 H         1 <0>        0.00000
     61 H31         4.9509   -0.4125    0.0000 H         1 <0>        0.00000
     62 H32         6.3799    0.4125    0.0000 H         1 <0>        0.00000
     63 H33         4.9509    0.4125    0.0000 H         1 <0>        0.00000
     64 H34         8.5234    5.7751    0.0000 H         1 <0>        0.00000
     65 H35         8.5234    5.7751    0.0000 H         1 <0>        0.00000
     66 H36         8.5234    5.7751    0.0000 H         1 <0>        0.00000
@<TRIPOS>BOND
     1    1    3 2
     2    1    4 2
     3    1    8 1
     4    1   20 1
     5    2   17 1
     6    2   21 1
     7    5   29 1
     8    6   29 2
     9    7   13 1
    10    7   14 1
    11    8   18 1
    12    9   10 1
    13    9   11 1
    14    9   12 1
    15   10   13 1
    16   11   14 1
    17   12   15 1
    18   15   16 1
    19   16   17 1
    20   18   19 1
    21   18   29 1
    22   19   23 1
    23   20   22 1
    24   21   25 ar
    25   21   26 ar
    26   22   24 1
    27   23   27 ar
    28   23   28 ar
    29   24   30 1
    30   25   27 ar
    31   26   28 ar
    32    5   31 1
    33    7   32 1
    34    8   33 1
    35    9   34 1
    36   10   35 1
    37   10   36 1
    38   11   37 1
    39   11   38 1
    40   12   39 1
    41   12   40 1
    42   13   41 1
    43   13   42 1
    44   14   43 1
    45   14   44 1
    46   15   45 1
    47   15   46 1
    48   16   47 1
    49   16   48 1
    50   17   49 1
    51   17   50 1
    52   18   51 1
    53   19   52 1
    54   19   53 1
    55   20   54 1
    56   20   55 1
    57   22   56 1
    58   22   57 1
    59   24   58 1
    60   24   59 1
    61   25   60 1
    62   26   61 1
    63   27   62 1
    64   28   63 1
    65   30   64 1
    66   30   65 1
    67   30   66 1
@<TRIPOS>SUBSTRUCTURE
     1 <0>         1 GROUP 0 A     ****
@<TRIPOS>MOLECULE
736
   61    65     1     0     0
SMALL
NO_CHARGES

@<TRIPOS>ATOM
      1 C1          2.3772    0.2788    0.0000 C.ar      1 <0>        0.00000
      2 N1          1.5888    0.5220    0.0000 N.ar      1 <0>        0.00000
      3 C2          0.9841   -0.0391    0.0000 C.ar      1 <0>        0.00000
      4 C3          1.1676   -0.8435    0.0000 C.ar      1 <0>        0.00000
      5 C4          1.9560   -1.0866    0.0000 C.ar      1 <0>        0.00000
      6 C5          2.5608   -0.5255    0.0000 C.ar      1 <0>        0.00000
      7 C6          0.2408    0.3188    0.0000 C.3       1 <0>        0.00000
      8 C7         -0.5025   -0.0391    0.0000 C.ar      1 <0>        0.00000
      9 C8         -0.6861   -0.8435    0.0000 C.ar      1 <0>        0.00000
     10 C9         -0.1717   -1.4885    0.0000 C.2       1 <0>        0.00000
     11 C10         0.6533   -1.4885    0.0000 C.2       1 <0>        0.00000
     12 C11        -1.1073    0.5220    0.0000 C.ar      1 <0>        0.00000
     13 C12        -1.8956    0.2788    0.0000 C.ar      1 <0>        0.00000
     14 C13        -2.0792   -0.5255    0.0000 C.ar      1 <0>        0.00000
     15 C14        -1.4745   -1.0866    0.0000 C.ar      1 <0>        0.00000
     16 C15         0.2408    1.1438    0.0000 C.3       1 <0>        0.00000
     17 C16        -0.4737    1.5563    0.0000 C.3       1 <0>        0.00000
     18 C17        -0.4737    2.3813    0.0000 C.3       1 <0>        0.00000
     19 N2          0.2408    2.7938    0.0000 N.pl3     1 <0>        0.00000
     20 C18         0.9552    2.3813    0.0000 C.3       1 <0>        0.00000
     21 C19         0.9552    1.5563    0.0000 C.3       1 <0>        0.00000
     22 Cl1        -2.8676   -0.7687    0.0000 Cl        1 <0>        0.00000
     23 S1          0.2408    3.6188    0.0000 S.o2      1 <0>        0.00000
     24 N3         -0.5297   -2.2318    0.0000 N.pl3     1 <0>        0.00000
     25 C20        -0.0649   -2.9134    0.0000 C.3       1 <0>        0.00000
     26 C21        -1.3524   -2.2934    0.0000 C.3       1 <0>        0.00000
     27 C22        -0.4229   -3.6567    0.0000 C.3       1 <0>        0.00000
     28 C23        -1.7103   -3.0367    0.0000 C.3       1 <0>        0.00000
     29 N4         -1.2456   -3.7184    0.0000 N.3       1 <0>        0.00000
     30 O1          0.2408    4.4438    0.0000 O.2       1 <0>        0.00000
     31 C24         1.0658    3.6188    0.0000 C.3       1 <0>        0.00000
     32 O2         -0.5842    3.6188    0.0000 O.2       1 <0>        0.00000
     33 H1          0.7352    0.6295    0.0000 H         1 <0>        0.00000
     34 H2          2.3772    0.2788    0.0000 H         1 <0>        0.00000
     35 H3          1.9560   -1.0866    0.0000 H         1 <0>        0.00000
     36 H4          2.5608   -0.5255    0.0000 H         1 <0>        0.00000
     37 H5          0.6533   -1.4885    0.0000 H         1 <0>        0.00000
     38 H6         -1.1073    0.5220    0.0000 H         1 <0>        0.00000
     39 H7         -1.8956    0.2788    0.0000 H         1 <0>        0.00000
     40 H8         -1.4745   -1.0866    0.0000 H         1 <0>        0.00000
     41 H9          0.2408    1.1438    0.0000 H         1 <0>        0.00000
     42 H10        -0.4737    1.5563    0.0000 H         1 <0>        0.00000
     43 H11        -0.4737    1.5563    0.0000 H         1 <0>        0.00000
     44 H12        -0.4737    2.3813    0.0000 H         1 <0>        0.00000
     45 H13        -0.4737    2.3813    0.0000 H         1 <0>        0.00000
     46 H14         0.9552    2.3813    0.0000 H         1 <0>        0.00000
     47 H15         0.9552    2.3813    0.0000 H         1 <0>        0.00000
     48 H16         0.9552    1.5563    0.0000 H         1 <0>        0.00000
     49 H17         0.9552    1.5563    0.0000 H         1 <0>        0.00000
     50 H18        -0.0649   -2.9134    0.0000 H         1 <0>        0.00000
     51 H19        -0.0649   -2.9134    0.0000 H         1 <0>        0.00000
     52 H20        -1.3524   -2.2934    0.0000 H         1 <0>        0.00000
     53 H21        -1.3524   -2.2934    0.0000 H         1 <0>        0.00000
     54 H22        -0.4229   -3.6567    0.0000 H         1 <0>        0.00000
     55 H23        -0.4229   -3.6567    0.0000 H         1 <0>        0.00000
     56 H24        -1.7103   -3.0367    0.0000 H         1 <0>        0.00000
     57 H25        -1.7103   -3.0367    0.0000 H         1 <0>        0.00000
     58 H26        -1.2456   -3.7184    0.0000 H         1 <0>        0.00000
     59 H27         1.0658    3.6188    0.0000 H         1 <0>        0.00000
     60 H28         1.0658    3.6188    0.0000 H         1 <0>        0.00000
     61 H29         1.0658    3.6188    0.0000 H         1 <0>        0.00000
@<TRIPOS>BOND
     1    1    2 ar
     2    1    6 ar
     3    2    3 ar
     4    3    4 ar
     5    3    7 1
     6    4    5 ar
     7    4   11 1
     8    5    6 ar
     9    7    8 1
    10    7   16 1
    11    7   33 1
    12    8    9 ar
    13    8   12 ar
    14    9   10 1
    15    9   15 ar
    16   10   11 2
    17   10   24 1
    18   12   13 ar
    19   13   14 ar
    20   14   15 ar
    21   14   22 1
    22   16   17 1
    23   16   21 1
    24   17   18 1
    25   18   19 1
    26   19   20 1
    27   19   23 1
    28   20   21 1
    29   23   30 2
    30   23   31 1
    31   23   32 2
    32   24   25 1
    33   24   26 1
    34   25   27 1
    35   26   28 1
    36   27   29 1
    37   28   29 1
    38    1   34 1
    39    5   35 1
    40    6   36 1
    41   11   37 1
    42   12   38 1
    43   13   39 1
    44   15   40 1
    45   16   41 1
    46   17   42 1
    47   17   43 1
    48   18   44 1
    49   18   45 1
    50   20   46 1
    51   20   47 1
    52   21   48 1
    53   21   49 1
    54   25   50 1
    55   25   51 1
    56   26   52 1
    57   26   53 1
    58   27   54 1
    59   27   55 1
    60   28   56 1
    61   28   57 1
    62   29   58 1
    63   31   59 1
    64   31   60 1
    65   31   61 1
@<TRIPOS>SUBSTRUCTURE
     1 <0>         1 GROUP 0 A     ****
@<TRIPOS>MOLECULE
740
   59    63     1     0     0
SMALL
NO_CHARGES

@<TRIPOS>ATOM
      1 C1         -3.1901   -1.0934    0.0000 C.ar      1 <0>        0.00000
      2 C2         -2.6381   -1.7065    0.0000 C.ar      1 <0>        0.00000
      3 C3         -1.8311   -1.5350    0.0000 C.ar      1 <0>        0.00000
      4 C4         -1.5762   -0.7504    0.0000 C.ar      1 <0>        0.00000
      5 C5         -2.1282   -0.1373    0.0000 C.ar      1 <0>        0.00000
      6 C6         -2.9352   -0.3088    0.0000 C.ar      1 <0>        0.00000
      7 C7         -0.7692   -0.5789    0.0000 C.3       1 <0>        0.00000
      8 C8         -0.5143    0.2058    0.0000 C.2       1 <0>        0.00000
      9 N1          0.2927    0.3773    0.0000 N.am      1 <0>        0.00000
     10 C9          0.5476    1.1619    0.0000 C.ar      1 <0>        0.00000
     11 N2          0.0627    1.8293    0.0000 N.ar      1 <0>        0.00000
     12 N3          0.5476    2.4968    0.0000 N.pl3     1 <0>        0.00000
     13 C10         1.3323    2.2418    0.0000 C.ar      1 <0>        0.00000
     14 C11         2.0467    2.6543    0.0000 C.ar      1 <0>        0.00000
     15 C12         2.7612    2.2418    0.0000 C.ar      1 <0>        0.00000
     16 C13         2.7612    1.4168    0.0000 C.ar      1 <0>        0.00000
     17 C14         2.0467    1.0043    0.0000 C.ar      1 <0>        0.00000
     18 C15         1.3323    1.4168    0.0000 C.ar      1 <0>        0.00000
     19 N4          3.4757    1.0043    0.0000 N.pl3     1 <0>        0.00000
     20 C16         4.2293    1.3399    0.0000 C.3       1 <0>        0.00000
     21 O1         -1.0663    0.8189    0.0000 O.2       1 <0>        0.00000
     22 C17         4.7814    0.7268    0.0000 C.3       1 <0>        0.00000
     23 S1          3.5619    0.1839    0.0000 S.o2      1 <0>        0.00000
     24 C18         4.3689    0.0123    0.0000 C.3       1 <0>        0.00000
     25 O2          2.7568    0.0039    0.0000 O.2       1 <0>        0.00000
     26 O3          3.2988   -0.5980    0.0000 O.2       1 <0>        0.00000
     27 C19        -4.2520   -2.0496    0.0000 C.3       1 <0>        0.00000
     28 N5         -3.9971   -1.2650    0.0000 N.pl3     1 <0>        0.00000
     29 C20        -4.5491   -0.6519    0.0000 C.3       1 <0>        0.00000
     30 C21        -5.3561   -0.8234    0.0000 C.3       1 <0>        0.00000
     31 C22        -5.6110   -1.6080    0.0000 C.3       1 <0>        0.00000
     32 C23        -5.0590   -2.2211    0.0000 C.3       1 <0>        0.00000
     33 H1         -2.6381   -1.7065    0.0000 H         1 <0>        0.00000
     34 H2         -1.8311   -1.5350    0.0000 H         1 <0>        0.00000
     35 H3         -2.1282   -0.1373    0.0000 H         1 <0>        0.00000
     36 H4         -2.9352   -0.3088    0.0000 H         1 <0>        0.00000
     37 H5         -0.7692   -0.5789    0.0000 H         1 <0>        0.00000
     38 H6         -0.7692   -0.5789    0.0000 H         1 <0>        0.00000
     39 H7          0.2927    0.3773    0.0000 H         1 <0>        0.00000
     40 H8          0.5476    2.4968    0.0000 H         1 <0>        0.00000
     41 H9          2.0467    2.6543    0.0000 H         1 <0>        0.00000
     42 H10         2.7612    2.2418    0.0000 H         1 <0>        0.00000
     43 H11         2.0467    1.0043    0.0000 H         1 <0>        0.00000
     44 H12         4.2293    1.3399    0.0000 H         1 <0>        0.00000
     45 H13         4.2293    1.3399    0.0000 H         1 <0>        0.00000
     46 H14         4.7814    0.7268    0.0000 H         1 <0>        0.00000
     47 H15         4.7814    0.7268    0.0000 H         1 <0>        0.00000
     48 H16         4.3689    0.0123    0.0000 H         1 <0>        0.00000
     49 H17         4.3689    0.0123    0.0000 H         1 <0>        0.00000
     50 H18        -4.2520   -2.0496    0.0000 H         1 <0>        0.00000
     51 H19        -4.2520   -2.0496    0.0000 H         1 <0>        0.00000
     52 H20        -4.5491   -0.6519    0.0000 H         1 <0>        0.00000
     53 H21        -4.5491   -0.6519    0.0000 H         1 <0>        0.00000
     54 H22        -5.3561   -0.8234    0.0000 H         1 <0>        0.00000
     55 H23        -5.3561   -0.8234    0.0000 H         1 <0>        0.00000
     56 H24        -5.6110   -1.6080    0.0000 H         1 <0>        0.00000
     57 H25        -5.6110   -1.6080    0.0000 H         1 <0>        0.00000
     58 H26        -5.0590   -2.2211    0.0000 H         1 <0>        0.00000
     59 H27        -5.0590   -2.2211    0.0000 H         1 <0>        0.00000
@<TRIPOS>BOND
     1    1    6 ar
     2    1    2 ar
     3    1   28 1
     4    2    3 ar
     5    3    4 ar
     6    4    7 1
     7    4    5 ar
     8    5    6 ar
     9    7    8 1
    10    8   21 2
    11    8    9 am
    12    9   10 1
    13   10   11 2
    14   10   18 1
    15   11   12 1
    16   12   13 1
    17   13   14 ar
    18   13   18 ar
    19   14   15 ar
    20   15   16 ar
    21   16   17 ar
    22   16   19 1
    23   17   18 ar
    24   19   20 1
    25   19   23 1
    26   20   22 1
    27   22   24 1
    28   23   24 1
    29   23   25 2
    30   23   26 2
    31   27   32 1
    32   27   28 1
    33   28   29 1
    34   29   30 1
    35   30   31 1
    36   31   32 1
    37    2   33 1
    38    3   34 1
    39    5   35 1
    40    6   36 1
    41    7   37 1
    42    7   38 1
    43    9   39 1
    44   12   40 1
    45   14   41 1
    46   15   42 1
    47   17   43 1
    48   20   44 1
    49   20   45 1
    50   22   46 1
    51   22   47 1
    52   24   48 1
    53   24   49 1
    54   27   50 1
    55   27   51 1
    56   29   52 1
    57   29   53 1
    58   30   54 1
    59   30   55 1
    60   31   56 1
    61   31   57 1
    62   32   58 1
    63   32   59 1
@<TRIPOS>SUBSTRUCTURE
     1 <0>         1 GROUP 0 A     ****
@<TRIPOS>MOLECULE
957
   58    61     1     0     0
SMALL
NO_CHARGES

@<TRIPOS>ATOM
      1 O1          8.7053    0.8591    0.0000 O.3       1 <0>        0.00000
      2 O2          9.5431   -0.2985    0.0000 O.2       1 <0>        0.00000
      3 O3          2.0940   -1.9791    0.0000 O.3       1 <0>        0.00000
      4 N1          2.8069   -2.3944    0.0000 N.2       1 <0>        0.00000
      5 C1          7.2563    0.1238    0.0000 C.3       1 <0>        0.00000
      6 C2          7.2563   -0.7012    0.0000 C.3       1 <0>        0.00000
      7 C3          6.5418   -1.1137    0.0000 C.3       1 <0>        0.00000
      8 C4          5.8274   -0.7012    0.0000 C.3       1 <0>        0.00000
      9 C5          8.0369    0.3753    0.0000 C.3       1 <0>        0.00000
     10 C6          6.5418    0.5363    0.0000 C.3       1 <0>        0.00000
     11 C7          8.0369   -0.9526    0.0000 C.3       1 <0>        0.00000
     12 C8          5.8274    0.1238    0.0000 C.3       1 <0>        0.00000
     13 C9          8.5184   -0.2887    0.0000 C.3       1 <0>        0.00000
     14 C10         5.0766   -1.1193    0.0000 C.3       1 <0>        0.00000
     15 C11         6.5550   -1.9729    0.0000 C.3       1 <0>        0.00000
     16 C12         7.2563    0.9489    0.0000 C.3       1 <0>        0.00000
     17 C13         5.8142   -2.4083    0.0000 C.3       1 <0>        0.00000
     18 C14         5.0699   -1.9786    0.0000 C.2       1 <0>        0.00000
     19 C15         4.3119   -0.6539    0.0000 C.3       1 <0>        0.00000
     20 C16         7.7834    1.1604    0.0000 C.1       1 <0>        0.00000
     21 C17         6.5418    1.3614    0.0000 C.3       1 <0>        0.00000
     22 C18         3.5298   -1.0895    0.0000 C.3       1 <0>        0.00000
     23 C19         4.2982   -2.4322    0.0000 C.2       1 <0>        0.00000
     24 C20         3.5230   -1.9846    0.0000 C.2       1 <0>        0.00000
     25 C21         9.4583    0.5222    0.0000 C.2       1 <0>        0.00000
     26 C22         7.5298    1.9454    0.0000 C.1       1 <0>        0.00000
     27 C23        10.1266    1.0059    0.0000 C.3       1 <0>        0.00000
     28 H1          7.3262   -1.3575    0.0000 H         1 <0>        0.00000
     29 H2          7.1159   -1.4392    0.0000 H         1 <0>        0.00000
     30 H3          6.3989   -0.3712    0.0000 H         1 <0>        0.00000
     31 H4          5.0893   -0.4595    0.0000 H         1 <0>        0.00000
     32 H5          2.0940   -1.9791    0.0000 H         1 <0>        0.00000
     33 H6          6.5418    0.5363    0.0000 H         1 <0>        0.00000
     34 H7          6.5418    0.5363    0.0000 H         1 <0>        0.00000
     35 H8          8.0369   -0.9526    0.0000 H         1 <0>        0.00000
     36 H9          8.0369   -0.9526    0.0000 H         1 <0>        0.00000
     37 H10         5.8274    0.1238    0.0000 H         1 <0>        0.00000
     38 H11         5.8274    0.1238    0.0000 H         1 <0>        0.00000
     39 H12         8.5184   -0.2887    0.0000 H         1 <0>        0.00000
     40 H13         8.5184   -0.2887    0.0000 H         1 <0>        0.00000
     41 H14         6.5550   -1.9729    0.0000 H         1 <0>        0.00000
     42 H15         6.5550   -1.9729    0.0000 H         1 <0>        0.00000
     43 H16         7.2563    0.9489    0.0000 H         1 <0>        0.00000
     44 H17         7.2563    0.9489    0.0000 H         1 <0>        0.00000
     45 H18         5.8142   -2.4083    0.0000 H         1 <0>        0.00000
     46 H19         5.8142   -2.4083    0.0000 H         1 <0>        0.00000
     47 H20         4.3119   -0.6539    0.0000 H         1 <0>        0.00000
     48 H21         4.3119   -0.6539    0.0000 H         1 <0>        0.00000
     49 H22         6.5418    1.3614    0.0000 H         1 <0>        0.00000
     50 H23         6.5418    1.3614    0.0000 H         1 <0>        0.00000
     51 H24         6.5418    1.3614    0.0000 H         1 <0>        0.00000
     52 H25         3.5298   -1.0895    0.0000 H         1 <0>        0.00000
     53 H26         3.5298   -1.0895    0.0000 H         1 <0>        0.00000
     54 H27         4.2982   -2.4322    0.0000 H         1 <0>        0.00000
     55 H28         7.5298    1.9454    0.0000 H         1 <0>        0.00000
     56 H29        10.1266    1.0059    0.0000 H         1 <0>        0.00000
     57 H30        10.1266    1.0059    0.0000 H         1 <0>        0.00000
     58 H31        10.1266    1.0059    0.0000 H         1 <0>        0.00000
@<TRIPOS>BOND
     1    1    9 1
     2    1   25 1
     3    2   25 2
     4    3    4 1
     5    4   24 2
     6    5    6 1
     7    5    9 1
     8    5   10 1
     9    5   16 1
    10    6    7 1
    11    6   11 1
    12    6   28 1
    13    7    8 1
    14    7   15 1
    15    7   29 1
    16    8   12 1
    17    8   14 1
    18    8   30 1
    19    9   13 1
    20    9   20 1
    21   10   12 1
    22   11   13 1
    23   14   18 1
    24   14   19 1
    25   14   31 1
    26   15   17 1
    27   16   21 1
    28   17   18 1
    29   18   23 2
    30   19   22 1
    31   20   26 3
    32   22   24 1
    33   23   24 1
    34   25   27 1
    35    3   32 1
    36   10   33 1
    37   10   34 1
    38   11   35 1
    39   11   36 1
    40   12   37 1
    41   12   38 1
    42   13   39 1
    43   13   40 1
    44   15   41 1
    45   15   42 1
    46   16   43 1
    47   16   44 1
    48   17   45 1
    49   17   46 1
    50   19   47 1
    51   19   48 1
    52   21   49 1
    53   21   50 1
    54   21   51 1
    55   22   52 1
    56   22   53 1
    57   23   54 1
    58   26   55 1
    59   27   56 1
    60   27   57 1
    61   27   58 1
@<TRIPOS>SUBSTRUCTURE
     1 <0>         1 GROUP 0 A     ****
@<TRIPOS>MOLECULE
805
   44    46     1     0     0
SMALL
NO_CHARGES

@<TRIPOS>ATOM
      1 O1          2.3645   -3.3001    0.0000 O.3       1 <0>        0.00000
      2 N1          2.3645   -1.6500    0.0000 N.3       1 <0>        0.00000
      3 N2          3.0791    0.4125    0.0000 N.pl3     1 <0>        0.00000
      4 N3          4.5080    0.4125    0.0000 N.ar      1 <0>        0.00000
      5 N4          5.2224    0.8250    0.0000 N.ar      1 <0>        0.00000
      6 C1          1.6500   -2.0625    0.0000 C.3       1 <0>        0.00000
      7 C2          3.0791   -2.0625    0.0000 C.3       1 <0>        0.00000
      8 C3          2.3645   -0.8250    0.0000 C.3       1 <0>        0.00000
      9 C4          1.6500   -2.8876    0.0000 C.3       1 <0>        0.00000
     10 C5          3.0791   -2.8876    0.0000 C.3       1 <0>        0.00000
     11 C6          3.0791   -0.4125    0.0000 C.3       1 <0>        0.00000
     12 C7          3.7935    0.8250    0.0000 C.ar      1 <0>        0.00000
     13 C8          3.7935    1.6500    0.0000 C.ar      1 <0>        0.00000
     14 C9          4.5080    2.0625    0.0000 C.ar      1 <0>        0.00000
     15 C10         5.2224    1.6500    0.0000 C.ar      1 <0>        0.00000
     16 C11         3.0791    2.0625    0.0000 C.3       1 <0>        0.00000
     17 C12         5.9370    2.0625    0.0000 C.ar      1 <0>        0.00000
     18 C13         5.9370    2.8876    0.0000 C.ar      1 <0>        0.00000
     19 C14         6.6515    1.6500    0.0000 C.ar      1 <0>        0.00000
     20 C15         6.6515    3.3001    0.0000 C.ar      1 <0>        0.00000
     21 C16         7.3659    2.0625    0.0000 C.ar      1 <0>        0.00000
     22 C17         7.3659    2.8876    0.0000 C.ar      1 <0>        0.00000
     23 H1          3.0791    0.4125    0.0000 H         1 <0>        0.00000
     24 H2          1.6500   -2.0625    0.0000 H         1 <0>        0.00000
     25 H3          1.6500   -2.0625    0.0000 H         1 <0>        0.00000
     26 H4          3.0791   -2.0625    0.0000 H         1 <0>        0.00000
     27 H5          3.0791   -2.0625    0.0000 H         1 <0>        0.00000
     28 H6          2.3645   -0.8250    0.0000 H         1 <0>        0.00000
     29 H7          2.3645   -0.8250    0.0000 H         1 <0>        0.00000
     30 H8          1.6500   -2.8876    0.0000 H         1 <0>        0.00000
     31 H9          1.6500   -2.8876    0.0000 H         1 <0>        0.00000
     32 H10         3.0791   -2.8876    0.0000 H         1 <0>        0.00000
     33 H11         3.0791   -2.8876    0.0000 H         1 <0>        0.00000
     34 H12         3.0791   -0.4125    0.0000 H         1 <0>        0.00000
     35 H13         3.0791   -0.4125    0.0000 H         1 <0>        0.00000
     36 H14         4.5080    2.0625    0.0000 H         1 <0>        0.00000
     37 H15         3.0791    2.0625    0.0000 H         1 <0>        0.00000
     38 H16         3.0791    2.0625    0.0000 H         1 <0>        0.00000
     39 H17         3.0791    2.0625    0.0000 H         1 <0>        0.00000
     40 H18         5.9370    2.8876    0.0000 H         1 <0>        0.00000
     41 H19         6.6515    1.6500    0.0000 H         1 <0>        0.00000
     42 H20         6.6515    3.3001    0.0000 H         1 <0>        0.00000
     43 H21         7.3659    2.0625    0.0000 H         1 <0>        0.00000
     44 H22         7.3659    2.8876    0.0000 H         1 <0>        0.00000
@<TRIPOS>BOND
     1    1    9 1
     2    1   10 1
     3    2    6 1
     4    2    7 1
     5    2    8 1
     6    3   11 1
     7    3   12 1
     8    4    5 ar
     9    4   12 ar
    10    5   15 ar
    11    6    9 1
    12    7   10 1
    13    8   11 1
    14   12   13 ar
    15   13   14 ar
    16   13   16 1
    17   14   15 ar
    18   15   17 1
    19   17   18 ar
    20   17   19 ar
    21   18   20 ar
    22   19   21 ar
    23   20   22 ar
    24   21   22 ar
    25    3   23 1
    26    6   24 1
    27    6   25 1
    28    7   26 1
    29    7   27 1
    30    8   28 1
    31    8   29 1
    32    9   30 1
    33    9   31 1
    34   10   32 1
    35   10   33 1
    36   11   34 1
    37   11   35 1
    38   14   36 1
    39   16   37 1
    40   16   38 1
    41   16   39 1
    42   18   40 1
    43   19   41 1
    44   20   42 1
    45   21   43 1
    46   22   44 1
@<TRIPOS>SUBSTRUCTURE
     1 <0>         1 GROUP 0 A     ****
@<TRIPOS>MOLECULE
79Z
   54    57     1     0     0
SMALL
NO_CHARGES

@<TRIPOS>ATOM
      1 C1          2.1861    1.2467    0.0000 C.3       1 <0>        0.00000
      2 C2          1.7736    0.5322    0.0000 C.3       1 <0>        0.00000
      3 C3          2.5986    0.5322    0.0000 C.3       1 <0>        0.00000
      4 C4         -2.4643   -0.2928    0.0000 C.ar      1 <0>        0.00000
      5 C5         -2.8768    0.4217    0.0000 C.ar      1 <0>        0.00000
      6 C6         -3.7018    0.4217    0.0000 C.ar      1 <0>        0.00000
      7 C7         -4.1143   -0.2928    0.0000 C.ar      1 <0>        0.00000
      8 C8         -3.7018   -1.0073    0.0000 C.ar      1 <0>        0.00000
      9 C9         -2.8768   -1.0073    0.0000 C.ar      1 <0>        0.00000
     10 C10         1.0592    0.1197    0.0000 C.ar      1 <0>        0.00000
     11 C11         1.0592   -0.7053    0.0000 C.ar      1 <0>        0.00000
     12 C12         0.3447   -1.1178    0.0000 C.ar      1 <0>        0.00000
     13 C13         0.3447    0.5322    0.0000 C.ar      1 <0>        0.00000
     14 C14        -0.3698    0.1197    0.0000 C.ar      1 <0>        0.00000
     15 C15        -0.3698   -0.7053    0.0000 C.ar      1 <0>        0.00000
     16 O1         -1.1544   -0.9602    0.0000 O.3       1 <0>        0.00000
     17 C16        -1.6393   -0.2928    0.0000 C.ar      1 <0>        0.00000
     18 C17        -1.1544    0.3746    0.0000 C.ar      1 <0>        0.00000
     19 C18        -1.4093    1.1593    0.0000 C.2       1 <0>        0.00000
     20 O2         -0.8573    1.7724    0.0000 O.2       1 <0>        0.00000
     21 N1         -2.2163    1.3308    0.0000 N.am      1 <0>        0.00000
     22 C19        -2.4712    2.1154    0.0000 C.3       1 <0>        0.00000
     23 N2          1.7736   -1.1178    0.0000 N.pl3     1 <0>        0.00000
     24 S1          1.7736   -1.9428    0.0000 S.o2      1 <0>        0.00000
     25 O3          0.9486   -1.9428    0.0000 O.2       1 <0>        0.00000
     26 O4          1.7736   -2.7678    0.0000 O.2       1 <0>        0.00000
     27 C20         2.5986   -1.9428    0.0000 C.3       1 <0>        0.00000
     28 F1         -4.9393   -0.2928    0.0000 F         1 <0>        0.00000
     29 C21         2.4881   -0.7053    0.0000 C.3       1 <0>        0.00000
     30 C22         3.2026   -1.1178    0.0000 C.3       1 <0>        0.00000
     31 O5          3.9171   -0.7053    0.0000 O.3       1 <0>        0.00000
     32 H1          2.1861    1.2467    0.0000 H         1 <0>        0.00000
     33 H2          2.1861    1.2467    0.0000 H         1 <0>        0.00000
     34 H3          1.7736    0.5322    0.0000 H         1 <0>        0.00000
     35 H4          2.5986    0.5322    0.0000 H         1 <0>        0.00000
     36 H5          2.5986    0.5322    0.0000 H         1 <0>        0.00000
     37 H6         -2.8768    0.4217    0.0000 H         1 <0>        0.00000
     38 H7         -3.7018    0.4217    0.0000 H         1 <0>        0.00000
     39 H8         -3.7018   -1.0073    0.0000 H         1 <0>        0.00000
     40 H9         -2.8768   -1.0073    0.0000 H         1 <0>        0.00000
     41 H10         0.3447   -1.1178    0.0000 H         1 <0>        0.00000
     42 H11         0.3447    0.5322    0.0000 H         1 <0>        0.00000
     43 H12        -2.2163    1.3308    0.0000 H         1 <0>        0.00000
     44 H13        -2.4712    2.1154    0.0000 H         1 <0>        0.00000
     45 H14        -2.4712    2.1154    0.0000 H         1 <0>        0.00000
     46 H15        -2.4712    2.1154    0.0000 H         1 <0>        0.00000
     47 H16         2.5986   -1.9428    0.0000 H         1 <0>        0.00000
     48 H17         2.5986   -1.9428    0.0000 H         1 <0>        0.00000
     49 H18         2.5986   -1.9428    0.0000 H         1 <0>        0.00000
     50 H19         2.4881   -0.7053    0.0000 H         1 <0>        0.00000
     51 H20         2.4881   -0.7053    0.0000 H         1 <0>        0.00000
     52 H21         3.2026   -1.1178    0.0000 H         1 <0>        0.00000
     53 H22         3.2026   -1.1178    0.0000 H         1 <0>        0.00000
     54 H23         3.9171   -0.7053    0.0000 H         1 <0>        0.00000
@<TRIPOS>BOND
     1    1    3 1
     2    1    2 1
     3    2   10 1
     4    2    3 1
     5    4    9 ar
     6    5    6 ar
     7    4    5 ar
     8    6    7 ar
     9    7   28 1
    10    7    8 ar
    11    8    9 ar
    12   10   11 ar
    13   11   12 ar
    14   11   23 1
    15   13   14 ar
    16   10   13 ar
    17   14   15 ar
    18   15   16 1
    19   12   15 ar
    20    4   17 1
    21   16   17 1
    22   14   18 1
    23   17   18 2
    24   18   19 1
    25   19   20 2
    26   19   21 am
    27   21   22 1
    28   23   24 1
    29   24   25 2
    30   24   27 1
    31   24   26 2
    32   23   29 1
    33   29   30 1
    34   30   31 1
    35    1   32 1
    36    1   33 1
    37    2   34 1
    38    3   35 1
    39    3   36 1
    40    5   37 1
    41    6   38 1
    42    8   39 1
    43    9   40 1
    44   12   41 1
    45   13   42 1
    46   21   43 1
    47   22   44 1
    48   22   45 1
    49   22   46 1
    50   27   47 1
    51   27   48 1
    52   27   49 1
    53   29   50 1
    54   29   51 1
    55   30   52 1
    56   30   53 1
    57   31   54 1
@<TRIPOS>SUBSTRUCTURE
     1 <0>         1 GROUP 0 A     ****
@<TRIPOS>MOLECULE
823
   60    63     1     0     0
SMALL
NO_CHARGES

@<TRIPOS>ATOM
      1 O1          8.9774    0.8591    0.0000 O.3       1 <0>        0.00000
      2 O2          3.0790   -2.3944    0.0000 O.3       1 <0>        0.00000
      3 O3          9.8152   -0.2985    0.0000 O.2       1 <0>        0.00000
      4 O4          2.3693   -1.1541    0.0000 O.2       1 <0>        0.00000
      5 C1          7.5284    0.1238    0.0000 C.3       1 <0>        0.00000
      6 C2          7.5284   -0.7012    0.0000 C.3       1 <0>        0.00000
      7 C3          6.8139   -1.1137    0.0000 C.3       1 <0>        0.00000
      8 C4          6.0994   -0.7012    0.0000 C.3       1 <0>        0.00000
      9 C5          8.3090    0.3753    0.0000 C.3       1 <0>        0.00000
     10 C6          6.8139    0.5363    0.0000 C.3       1 <0>        0.00000
     11 C7          8.3090   -0.9526    0.0000 C.3       1 <0>        0.00000
     12 C8          6.0994    0.1238    0.0000 C.3       1 <0>        0.00000
     13 C9          5.3487   -1.1193    0.0000 C.3       1 <0>        0.00000
     14 C10         8.7906   -0.2887    0.0000 C.3       1 <0>        0.00000
     15 C11         6.8272   -1.9729    0.0000 C.3       1 <0>        0.00000
     16 C12         7.5284    0.9489    0.0000 C.3       1 <0>        0.00000
     17 C13         5.3420   -1.9786    0.0000 C.2       1 <0>        0.00000
     18 C14         6.0862   -2.4083    0.0000 C.3       1 <0>        0.00000
     19 C15         4.5840   -0.6539    0.0000 C.3       1 <0>        0.00000
     20 C16         3.8019   -1.0895    0.0000 C.3       1 <0>        0.00000
     21 C17         8.0555    1.1604    0.0000 C.1       1 <0>        0.00000
     22 C18         4.5703   -2.4322    0.0000 C.2       1 <0>        0.00000
     23 C19         3.7951   -1.9846    0.0000 C.3       1 <0>        0.00000
     24 C20         9.7304    0.5222    0.0000 C.2       1 <0>        0.00000
     25 C21         7.8019    1.9454    0.0000 C.1       1 <0>        0.00000
     26 C22        10.3987    1.0059    0.0000 C.3       1 <0>        0.00000
     27 C23         2.3661   -1.9791    0.0000 C.2       1 <0>        0.00000
     28 C24         1.6500   -2.3888    0.0000 C.3       1 <0>        0.00000
     29 H1          7.5983   -1.3575    0.0000 H         1 <0>        0.00000
     30 H2          7.3880   -1.4392    0.0000 H         1 <0>        0.00000
     31 H3          6.6710   -0.3712    0.0000 H         1 <0>        0.00000
     32 H4          5.3614   -0.4595    0.0000 H         1 <0>        0.00000
     33 H5          6.8139    0.5363    0.0000 H         1 <0>        0.00000
     34 H6          6.8139    0.5363    0.0000 H         1 <0>        0.00000
     35 H7          8.3090   -0.9526    0.0000 H         1 <0>        0.00000
     36 H8          8.3090   -0.9526    0.0000 H         1 <0>        0.00000
     37 H9          6.0994    0.1238    0.0000 H         1 <0>        0.00000
     38 H10         6.0994    0.1238    0.0000 H         1 <0>        0.00000
     39 H11         8.7906   -0.2887    0.0000 H         1 <0>        0.00000
     40 H12         8.7906   -0.2887    0.0000 H         1 <0>        0.00000
     41 H13         6.8272   -1.9729    0.0000 H         1 <0>        0.00000
     42 H14         6.8272   -1.9729    0.0000 H         1 <0>        0.00000
     43 H15         7.5284    0.9489    0.0000 H         1 <0>        0.00000
     44 H16         7.5284    0.9489    0.0000 H         1 <0>        0.00000
     45 H17         7.5284    0.9489    0.0000 H         1 <0>        0.00000
     46 H18         6.0862   -2.4083    0.0000 H         1 <0>        0.00000
     47 H19         6.0862   -2.4083    0.0000 H         1 <0>        0.00000
     48 H20         4.5840   -0.6539    0.0000 H         1 <0>        0.00000
     49 H21         4.5840   -0.6539    0.0000 H         1 <0>        0.00000
     50 H22         3.8019   -1.0895    0.0000 H         1 <0>        0.00000
     51 H23         3.8019   -1.0895    0.0000 H         1 <0>        0.00000
     52 H24         4.5703   -2.4322    0.0000 H         1 <0>        0.00000
     53 H25         3.7951   -1.9846    0.0000 H         1 <0>        0.00000
     54 H26         7.8019    1.9454    0.0000 H         1 <0>        0.00000
     55 H27        10.3987    1.0059    0.0000 H         1 <0>        0.00000
     56 H28        10.3987    1.0059    0.0000 H         1 <0>        0.00000
     57 H29        10.3987    1.0059    0.0000 H         1 <0>        0.00000
     58 H30         1.6500   -2.3888    0.0000 H         1 <0>        0.00000
     59 H31         1.6500   -2.3888    0.0000 H         1 <0>        0.00000
     60 H32         1.6500   -2.3888    0.0000 H         1 <0>        0.00000
@<TRIPOS>BOND
     1    1    9 1
     2    1   24 1
     3    2   23 1
     4    2   27 1
     5    3   24 2
     6    4   27 2
     7    5    6 1
     8    5    9 1
     9    5   10 1
    10    5   16 1
    11    6    7 1
    12    6   11 1
    13    6   29 1
    14    7    8 1
    15    7   15 1
    16    7   30 1
    17    8   12 1
    18    8   13 1
    19    8   31 1
    20    9   14 1
    21    9   21 1
    22   10   12 1
    23   11   14 1
    24   13   17 1
    25   13   19 1
    26   13   32 1
    27   15   18 1
    28   17   18 1
    29   17   22 2
    30   19   20 1
    31   20   23 1
    32   21   25 3
    33   22   23 1
    34   24   26 1
    35   27   28 1
    36   10   33 1
    37   10   34 1
    38   11   35 1
    39   11   36 1
    40   12   37 1
    41   12   38 1
    42   14   39 1
    43   14   40 1
    44   15   41 1
    45   15   42 1
    46   16   43 1
    47   16   44 1
    48   16   45 1
    49   18   46 1
    50   18   47 1
    51   19   48 1
    52   19   49 1
    53   20   50 1
    54   20   51 1
    55   22   52 1
    56   23   53 1
    57   25   54 1
    58   26   55 1
    59   26   56 1
    60   26   57 1
    61   28   58 1
    62   28   59 1
    63   28   60 1
@<TRIPOS>SUBSTRUCTURE
     1 <0>         1 GROUP 0 A     ****
@<TRIPOS>MOLECULE
MiniDrugBank_133
   36    38     1     0     0
SMALL
NO_CHARGES

@<TRIPOS>ATOM
      1 C1          5.5156    1.7457    0.0000 C.3       1 <0>        0.00000
      2 C2          2.8579   -1.6500    0.0000 C.3       1 <0>        0.00000
      3 C3         -0.7145   -0.4125    0.0000 C.ar      1 <0>        0.00000
      4 C4         -0.7145   -1.2375    0.0000 C.ar      1 <0>        0.00000
      5 C5          0.0000    0.0000    0.0000 C.ar      1 <0>        0.00000
      6 C6          0.0000   -1.6500    0.0000 C.ar      1 <0>        0.00000
      7 C7          4.3731    0.8205    0.0000 C.ar      1 <0>        0.00000
      8 C8          5.1800    0.9920    0.0000 C.ar      1 <0>        0.00000
      9 C9          0.7145   -0.4125    0.0000 C.ar      1 <0>        0.00000
     10 C10         0.7145   -1.2375    0.0000 C.ar      1 <0>        0.00000
     11 C11         4.2868   -0.0000    0.0000 C.ar      1 <0>        0.00000
     12 C12         2.1434   -0.4125    0.0000 C.ar      1 <0>        0.00000
     13 C13         1.4289   -0.0000    0.0000 C.ar      1 <0>        0.00000
     14 C14         2.8579   -0.0000    0.0000 C.2       1 <0>        0.00000
     15 N1          3.5724   -0.4125    0.0000 N.2       1 <0>        0.00000
     16 N2          5.0405   -0.3356    0.0000 N.pl3     1 <0>        0.00000
     17 N3          2.1434   -1.2375    0.0000 N.pl3     1 <0>        0.00000
     18 O1          1.4289    0.8250    0.0000 O.3       1 <0>        0.00000
     19 O2          2.8579    0.8250    0.0000 O.2       1 <0>        0.00000
     20 O3          1.0416   -2.3784    0.0000 O.2       1 <0>        0.00000
     21 O4          1.8163   -2.3784    0.0000 O.2       1 <0>        0.00000
     22 O5          5.5925    0.2775    0.0000 O.3       1 <0>        0.00000
     23 S1          1.4289   -1.6500    0.0000 S.o2      1 <0>        0.00000
     24 H1          5.5156    1.7457    0.0000 H         1 <0>        0.00000
     25 H2          5.5156    1.7457    0.0000 H         1 <0>        0.00000
     26 H3          5.5156    1.7457    0.0000 H         1 <0>        0.00000
     27 H4          2.8579   -1.6500    0.0000 H         1 <0>        0.00000
     28 H5          2.8579   -1.6500    0.0000 H         1 <0>        0.00000
     29 H6          2.8579   -1.6500    0.0000 H         1 <0>        0.00000
     30 H7         -0.7145   -0.4125    0.0000 H         1 <0>        0.00000
     31 H8         -0.7145   -1.2375    0.0000 H         1 <0>        0.00000
     32 H9          0.0000    0.0000    0.0000 H         1 <0>        0.00000
     33 H10         0.0000   -1.6500    0.0000 H         1 <0>        0.00000
     34 H11         4.3731    0.8205    0.0000 H         1 <0>        0.00000
     35 H12         5.0405   -0.3356    0.0000 H         1 <0>        0.00000
     36 H13         1.4289    0.8250    0.0000 H         1 <0>        0.00000
@<TRIPOS>BOND
     1    3    4 ar
     2    3    5 ar
     3    4    6 ar
     4    1    8 1
     5    7    8 2
     6    5    9 ar
     7    6   10 ar
     8    9   10 ar
     9    7   11 1
    10    9   13 1
    11   12   13 2
    12   12   14 1
    13   11   15 2
    14   14   15 1
    15   11   16 1
    16    2   17 1
    17   12   17 1
    18   13   18 1
    19   14   19 2
    20    8   22 1
    21   16   22 1
    22   10   23 1
    23   17   23 1
    24   20   23 2
    25   21   23 2
    26    1   24 1
    27    1   25 1
    28    1   26 1
    29    2   27 1
    30    2   28 1
    31    2   29 1
    32    3   30 1
    33    4   31 1
    34    5   32 1
    35    6   33 1
    36    7   34 1
    37   16   35 1
    38   18   36 1
@<TRIPOS>SUBSTRUCTURE
     1 <0>         1 GROUP 0 A     ****
@<TRIPOS>MOLECULE
SG2
   23    24     1     0     0
SMALL
NO_CHARGES

@<TRIPOS>ATOM
      1 S1          1.7711    0.8782    0.0000 S.o2      1 <0>        0.00000
      2 C1          1.0566    0.4657    0.0000 C.ar      1 <0>        0.00000
      3 C2          1.0566   -0.3593    0.0000 C.ar      1 <0>        0.00000
      4 C3          0.3421   -0.7718    0.0000 C.ar      1 <0>        0.00000
      5 C4         -0.3723   -0.3593    0.0000 C.ar      1 <0>        0.00000
      6 N1         -1.1569   -0.6142    0.0000 N.pl3     1 <0>        0.00000
      7 C5         -1.4119   -1.3988    0.0000 C.3       1 <0>        0.00000
      8 S2         -1.6419    0.0532    0.0000 S.3       1 <0>        0.00000
      9 C6         -1.1569    0.7207    0.0000 C.ar      1 <0>        0.00000
     10 O1         -1.4119    1.5053    0.0000 O.2       1 <0>        0.00000
     11 C7         -0.3723    0.4657    0.0000 C.ar      1 <0>        0.00000
     12 C8          0.3421    0.8782    0.0000 C.ar      1 <0>        0.00000
     13 N2          2.4856    1.2907    0.0000 N.pl3     1 <0>        0.00000
     14 O2          2.1836    0.1638    0.0000 O.2       1 <0>        0.00000
     15 O3          1.3586    1.5927    0.0000 O.2       1 <0>        0.00000
     16 H1          1.0566   -0.3593    0.0000 H         1 <0>        0.00000
     17 H2          0.3421   -0.7718    0.0000 H         1 <0>        0.00000
     18 H3         -1.4119   -1.3988    0.0000 H         1 <0>        0.00000
     19 H4         -1.4119   -1.3988    0.0000 H         1 <0>        0.00000
     20 H5         -1.4119   -1.3988    0.0000 H         1 <0>        0.00000
     21 H6          0.3421    0.8782    0.0000 H         1 <0>        0.00000
     22 H7          2.4856    1.2907    0.0000 H         1 <0>        0.00000
     23 H8          2.4856    1.2907    0.0000 H         1 <0>        0.00000
@<TRIPOS>BOND
     1    1    2 1
     2    1   13 1
     3    1   14 2
     4    1   15 2
     5    2    3 ar
     6    2   12 ar
     7    3    4 ar
     8    4    5 ar
     9    5    6 1
    10    5   11 ar
    11    6    7 1
    12    6    8 1
    13    8    9 1
    14    9   10 2
    15    9   11 1
    16   11   12 ar
    17    3   16 1
    18    4   17 1
    19    7   18 1
    20    7   19 1
    21    7   20 1
    22   12   21 1
    23   13   22 1
    24   13   23 1
@<TRIPOS>SUBSTRUCTURE
     1 <0>         1 GROUP 0 A     ****
@<TRIPOS>MOLECULE
842
   31    33     1     0     0
SMALL
NO_CHARGES

@<TRIPOS>ATOM
      1 Cl1         2.5467   -2.3783    0.0000 Cl        1 <0>        0.00000
      2 O1          3.8811    2.3401    0.0000 O.3       1 <0>        0.00000
      3 O2          2.3403    2.3401    0.0000 O.2       1 <0>        0.00000
      4 N1          2.1838    0.9518    0.0000 N.am      1 <0>        0.00000
      5 N2          4.0375    0.9518    0.0000 N.2       1 <0>        0.00000
      6 C1          3.1106   -0.2105    0.0000 C.ar      1 <0>        0.00000
      7 C2          3.8540    0.1475    0.0000 C.2       1 <0>        0.00000
      8 C3          2.3674    0.1475    0.0000 C.ar      1 <0>        0.00000
      9 C4          4.4989   -0.3669    0.0000 C.ar      1 <0>        0.00000
     10 C5          3.5231    1.5968    0.0000 C.3       1 <0>        0.00000
     11 C6          3.1881   -1.0663    0.0000 C.ar      1 <0>        0.00000
     12 C7          1.6500   -0.3256    0.0000 C.ar      1 <0>        0.00000
     13 C8          2.6981    1.5968    0.0000 C.2       1 <0>        0.00000
     14 C9          2.4818   -1.5559    0.0000 C.ar      1 <0>        0.00000
     15 C10         1.7076   -1.1830    0.0000 C.ar      1 <0>        0.00000
     16 C11         5.2669   -0.0655    0.0000 C.ar      1 <0>        0.00000
     17 C12         4.3760   -1.1827    0.0000 C.ar      1 <0>        0.00000
     18 C13         5.9120   -0.5799    0.0000 C.ar      1 <0>        0.00000
     19 C14         5.0210   -1.6971    0.0000 C.ar      1 <0>        0.00000
     20 C15         5.7890   -1.3956    0.0000 C.ar      1 <0>        0.00000
     21 H1          3.8811    2.3401    0.0000 H         1 <0>        0.00000
     22 H2          2.1838    0.9518    0.0000 H         1 <0>        0.00000
     23 H3          3.5231    1.5968    0.0000 H         1 <0>        0.00000
     24 H4          3.1881   -1.0663    0.0000 H         1 <0>        0.00000
     25 H5          1.6500   -0.3256    0.0000 H         1 <0>        0.00000
     26 H6          1.7076   -1.1830    0.0000 H         1 <0>        0.00000
     27 H7          5.2669   -0.0655    0.0000 H         1 <0>        0.00000
     28 H8          4.3760   -1.1827    0.0000 H         1 <0>        0.00000
     29 H9          5.9120   -0.5799    0.0000 H         1 <0>        0.00000
     30 H10         5.0210   -1.6971    0.0000 H         1 <0>        0.00000
     31 H11         5.7890   -1.3956    0.0000 H         1 <0>        0.00000
@<TRIPOS>BOND
     1    1   14 1
     2    2   10 1
     3    3   13 2
     4    4    8 1
     5    4   13 am
     6    5    7 2
     7    5   10 1
     8    6    7 1
     9    6    8 ar
    10    6   11 ar
    11    7    9 1
    12    8   12 ar
    13    9   16 ar
    14    9   17 ar
    15   10   13 1
    16   11   14 ar
    17   12   15 ar
    18   14   15 ar
    19   16   18 ar
    20   17   19 ar
    21   18   20 ar
    22   19   20 ar
    23    2   21 1
    24    4   22 1
    25   10   23 1
    26   11   24 1
    27   12   25 1
    28   15   26 1
    29   16   27 1
    30   17   28 1
    31   18   29 1
    32   19   30 1
    33   20   31 1
@<TRIPOS>SUBSTRUCTURE
     1 <0>         1 GROUP 0 A     ****
@<TRIPOS>MOLECULE
MiniDrugBank_136
   66    70     1     0     0
SMALL
NO_CHARGES

@<TRIPOS>ATOM
      1 N1         -5.8078   -3.0058    0.0000 N.pl3     1 <0>        0.00000
      2 C1         -5.4722   -3.7595    0.0000 C.ar      1 <0>        0.00000
      3 N2         -4.6518   -3.8457    0.0000 N.ar      1 <0>        0.00000
      4 C2         -4.3162   -4.5994    0.0000 C.ar      1 <0>        0.00000
      5 O1         -3.4957   -4.6856    0.0000 O.2       1 <0>        0.00000
      6 N3         -4.8011   -5.2668    0.0000 N.am      1 <0>        0.00000
      7 C3         -5.6216   -5.1806    0.0000 C.ar      1 <0>        0.00000
      8 C4         -5.9572   -4.4269    0.0000 C.ar      1 <0>        0.00000
      9 C5         -4.4656   -6.0205    0.0000 C.3       1 <0>        0.00000
     10 O2         -3.6586   -6.1920    0.0000 O.3       1 <0>        0.00000
     11 C6         -3.5724   -7.0125    0.0000 C.3       1 <0>        0.00000
     12 C7         -2.8579   -7.4250    0.0000 C.3       1 <0>        0.00000
     13 O3         -2.1434   -7.0125    0.0000 O.3       1 <0>        0.00000
     14 P1         -1.4289   -7.4250    0.0000 P.3       1 <0>        0.00000
     15 O4         -1.8414   -8.1395    0.0000 O.3       1 <0>        0.00000
     16 O5         -1.0164   -6.7105    0.0000 O.2       1 <0>        0.00000
     17 O6         -0.7145   -7.8375    0.0000 O.3       1 <0>        0.00000
     18 P2          0.0000   -7.4250    0.0000 P.3       1 <0>        0.00000
     19 O7          0.4125   -8.1395    0.0000 O.3       1 <0>        0.00000
     20 O8         -0.4125   -6.7105    0.0000 O.2       1 <0>        0.00000
     21 O9          0.7145   -7.0125    0.0000 O.3       1 <0>        0.00000
     22 C8          1.4289   -7.4250    0.0000 C.3       1 <0>        0.00000
     23 C9          2.1434   -7.0125    0.0000 C.3       1 <0>        0.00000
     24 O10         2.8579   -7.4250    0.0000 O.3       1 <0>        0.00000
     25 C10         3.5724   -7.0125    0.0000 C.ar      1 <0>        0.00000
     26 N4          4.2868   -7.4250    0.0000 N.ar      1 <0>        0.00000
     27 C11         5.0013   -7.0125    0.0000 C.ar      1 <0>        0.00000
     28 C12         5.0013   -6.1875    0.0000 C.ar      1 <0>        0.00000
     29 N5          4.2868   -5.7750    0.0000 N.ar      1 <0>        0.00000
     30 C13         3.5724   -6.1875    0.0000 C.ar      1 <0>        0.00000
     31 C14         2.8579   -5.7750    0.0000 C.2       1 <0>        0.00000
     32 S1          2.8579   -4.9500    0.0000 S.3       1 <0>        0.00000
     33 C15         2.1434   -6.1875    0.0000 C.2       1 <0>        0.00000
     34 S2          1.4289   -5.7750    0.0000 S.3       1 <0>        0.00000
     35 C16         5.7158   -5.7750    0.0000 C.ar      1 <0>        0.00000
     36 O11         5.7158   -4.9500    0.0000 O.3       1 <0>        0.00000
     37 N6          6.4302   -6.1875    0.0000 N.ar      1 <0>        0.00000
     38 C17         6.4302   -7.0125    0.0000 C.ar      1 <0>        0.00000
     39 N7          7.1447   -7.4250    0.0000 N.pl3     1 <0>        0.00000
     40 N8          5.7158   -7.4250    0.0000 N.ar      1 <0>        0.00000
     41 C18        -4.3260   -7.3481    0.0000 C.3       1 <0>        0.00000
     42 O12        -4.4976   -8.1550    0.0000 O.3       1 <0>        0.00000
     43 C19        -4.8781   -6.7350    0.0000 C.3       1 <0>        0.00000
     44 O13        -5.6985   -6.8212    0.0000 O.3       1 <0>        0.00000
     45 H1         -5.8078   -3.0058    0.0000 H         1 <0>        0.00000
     46 H2         -5.8078   -3.0058    0.0000 H         1 <0>        0.00000
     47 H3         -5.6216   -5.1806    0.0000 H         1 <0>        0.00000
     48 H4         -5.9572   -4.4269    0.0000 H         1 <0>        0.00000
     49 H5         -4.4656   -6.0205    0.0000 H         1 <0>        0.00000
     50 H6         -3.5724   -7.0125    0.0000 H         1 <0>        0.00000
     51 H7         -2.8579   -7.4250    0.0000 H         1 <0>        0.00000
     52 H8         -2.8579   -7.4250    0.0000 H         1 <0>        0.00000
     53 H9         -1.8414   -8.1395    0.0000 H         1 <0>        0.00000
     54 H10         0.4125   -8.1395    0.0000 H         1 <0>        0.00000
     55 H11         1.4289   -7.4250    0.0000 H         1 <0>        0.00000
     56 H12         1.4289   -7.4250    0.0000 H         1 <0>        0.00000
     57 H13         2.1434   -7.0125    0.0000 H         1 <0>        0.00000
     58 H14         2.8579   -4.9500    0.0000 H         1 <0>        0.00000
     59 H15         1.4289   -5.7750    0.0000 H         1 <0>        0.00000
     60 H16         5.7158   -4.9500    0.0000 H         1 <0>        0.00000
     61 H17         7.1447   -7.4250    0.0000 H         1 <0>        0.00000
     62 H18         7.1447   -7.4250    0.0000 H         1 <0>        0.00000
     63 H19        -4.3260   -7.3481    0.0000 H         1 <0>        0.00000
     64 H20        -4.4976   -8.1550    0.0000 H         1 <0>        0.00000
     65 H21        -4.8781   -6.7350    0.0000 H         1 <0>        0.00000
     66 H22        -5.6985   -6.8212    0.0000 H         1 <0>        0.00000
@<TRIPOS>BOND
     1    1    2 1
     2    2    3 2
     3    3    4 1
     4    4    5 2
     5    4    6 am
     6    6    7 1
     7    7    8 2
     8    2    8 1
     9    6    9 1
    10    9   10 1
    11   10   11 1
    12   11   12 1
    13   12   13 1
    14   13   14 1
    15   14   15 1
    16   14   16 2
    17   14   17 1
    18   17   18 1
    19   18   19 1
    20   18   20 2
    21   18   21 1
    22   21   22 1
    23   22   23 1
    24   23   24 1
    25   24   25 1
    26   25   26 ar
    27   26   27 ar
    28   27   28 ar
    29   28   29 ar
    30   29   30 ar
    31   25   30 ar
    32   30   31 1
    33   31   32 1
    34   31   33 2
    35   23   33 1
    36   33   34 1
    37   28   35 ar
    38   35   36 1
    39   35   37 ar
    40   37   38 ar
    41   38   39 1
    42   38   40 ar
    43   27   40 ar
    44   11   41 1
    45   41   42 1
    46   41   43 1
    47    9   43 1
    48   43   44 1
    49    1   45 1
    50    1   46 1
    51    7   47 1
    52    8   48 1
    53    9   49 1
    54   11   50 1
    55   12   51 1
    56   12   52 1
    57   15   53 1
    58   19   54 1
    59   22   55 1
    60   22   56 1
    61   23   57 1
    62   32   58 1
    63   34   59 1
    64   36   60 1
    65   39   61 1
    66   39   62 1
    67   41   63 1
    68   42   64 1
    69   43   65 1
    70   44   66 1
@<TRIPOS>SUBSTRUCTURE
     1 <0>         1 GROUP 0 A     ****
@<TRIPOS>MOLECULE
888
   50    53     1     0     0
SMALL
NO_CHARGES

@<TRIPOS>ATOM
      1 C1         -1.8368   -1.9576    0.0000 C.ar      1 <0>        0.00000
      2 C2         -1.8368   -2.7826    0.0000 C.ar      1 <0>        0.00000
      3 C3         -2.5512   -3.1951    0.0000 C.ar      1 <0>        0.00000
      4 C4         -3.2657   -2.7826    0.0000 C.ar      1 <0>        0.00000
      5 C5         -3.2657   -1.9576    0.0000 C.ar      1 <0>        0.00000
      6 C6         -2.5512   -1.5451    0.0000 C.ar      1 <0>        0.00000
      7 S1         -2.5512   -0.7201    0.0000 S.o2      1 <0>        0.00000
      8 N1         -1.8368   -0.3076    0.0000 N.ar      1 <0>        0.00000
      9 C7         -1.1223   -0.7201    0.0000 C.ar      1 <0>        0.00000
     10 N2         -1.1223   -1.5451    0.0000 N.pl3     1 <0>        0.00000
     11 C8         -0.4078   -0.3076    0.0000 C.ar      1 <0>        0.00000
     12 C9          0.3066   -0.7201    0.0000 C.ar      1 <0>        0.00000
     13 C10         1.0211   -0.3076    0.0000 C.ar      1 <0>        0.00000
     14 C11         1.0211    0.5174    0.0000 C.ar      1 <0>        0.00000
     15 N3          0.3066    0.9299    0.0000 N.am      1 <0>        0.00000
     16 C12        -0.4078    0.5174    0.0000 C.ar      1 <0>        0.00000
     17 C13         1.7356   -0.7201    0.0000 C.ar      1 <0>        0.00000
     18 C14         2.4501   -0.3076    0.0000 C.ar      1 <0>        0.00000
     19 C15         2.4501    0.5174    0.0000 C.ar      1 <0>        0.00000
     20 C16         1.7356    0.9299    0.0000 C.ar      1 <0>        0.00000
     21 O1          0.3066   -1.5451    0.0000 O.3       1 <0>        0.00000
     22 O2         -1.1223    0.9299    0.0000 O.2       1 <0>        0.00000
     23 C17         0.3066    1.7549    0.0000 C.3       1 <0>        0.00000
     24 C18        -0.4078    2.1674    0.0000 C.3       1 <0>        0.00000
     25 C19        -0.4078    2.9924    0.0000 C.3       1 <0>        0.00000
     26 C20        -1.1223    3.4049    0.0000 C.3       1 <0>        0.00000
     27 O3         -3.3757   -0.6913    0.0000 O.2       1 <0>        0.00000
     28 O4         -2.9884   -0.0204    0.0000 O.2       1 <0>        0.00000
     29 C21         0.3066    3.4049    0.0000 C.3       1 <0>        0.00000
     30 H1         -1.8368   -2.7826    0.0000 H         1 <0>        0.00000
     31 H2         -2.5512   -3.1951    0.0000 H         1 <0>        0.00000
     32 H3         -3.2657   -2.7826    0.0000 H         1 <0>        0.00000
     33 H4         -3.2657   -1.9576    0.0000 H         1 <0>        0.00000
     34 H5         -1.1223   -1.5451    0.0000 H         1 <0>        0.00000
     35 H6          1.7356   -0.7201    0.0000 H         1 <0>        0.00000
     36 H7          2.4501   -0.3076    0.0000 H         1 <0>        0.00000
     37 H8          2.4501    0.5174    0.0000 H         1 <0>        0.00000
     38 H9          1.7356    0.9299    0.0000 H         1 <0>        0.00000
     39 H10         0.3066   -1.5451    0.0000 H         1 <0>        0.00000
     40 H11         0.3066    1.7549    0.0000 H         1 <0>        0.00000
     41 H12         0.3066    1.7549    0.0000 H         1 <0>        0.00000
     42 H13        -0.4078    2.1674    0.0000 H         1 <0>        0.00000
     43 H14        -0.4078    2.1674    0.0000 H         1 <0>        0.00000
     44 H15        -0.4078    2.9924    0.0000 H         1 <0>        0.00000
     45 H16        -1.1223    3.4049    0.0000 H         1 <0>        0.00000
     46 H17        -1.1223    3.4049    0.0000 H         1 <0>        0.00000
     47 H18        -1.1223    3.4049    0.0000 H         1 <0>        0.00000
     48 H19         0.3066    3.4049    0.0000 H         1 <0>        0.00000
     49 H20         0.3066    3.4049    0.0000 H         1 <0>        0.00000
     50 H21         0.3066    3.4049    0.0000 H         1 <0>        0.00000
@<TRIPOS>BOND
     1    1    2 ar
     2    1    6 ar
     3    1   10 1
     4    2    3 ar
     5    3    4 ar
     6    4    5 ar
     7    5    6 ar
     8    6    7 1
     9    7    8 1
    10    7   27 2
    11    7   28 2
    12    8    9 2
    13    9   10 1
    14    9   11 1
    15   11   12 2
    16   11   16 1
    17   12   13 1
    18   12   21 1
    19   13   14 ar
    20   13   17 ar
    21   14   15 1
    22   14   20 ar
    23   15   16 am
    24   15   23 1
    25   16   22 2
    26   17   18 ar
    27   18   19 ar
    28   19   20 ar
    29   23   24 1
    30   24   25 1
    31   25   26 1
    32   25   29 1
    33    2   30 1
    34    3   31 1
    35    4   32 1
    36    5   33 1
    37   10   34 1
    38   17   35 1
    39   18   36 1
    40   19   37 1
    41   20   38 1
    42   21   39 1
    43   23   40 1
    44   23   41 1
    45   24   42 1
    46   24   43 1
    47   25   44 1
    48   26   45 1
    49   26   46 1
    50   26   47 1
    51   29   48 1
    52   29   49 1
    53   29   50 1
@<TRIPOS>SUBSTRUCTURE
     1 <0>         1 GROUP 0 A     ****
@<TRIPOS>MOLECULE
894
   52    54     1     0     0
SMALL
NO_CHARGES

@<TRIPOS>ATOM
      1 Cl1        -5.8261   -3.2134    0.0000 Cl        1 <0>        0.00000
      2 C1         -5.1587   -3.6983    0.0000 C.ar      1 <0>        0.00000
      3 C2         -5.1587   -4.5233    0.0000 C.ar      1 <0>        0.00000
      4 C3         -4.3740   -4.7782    0.0000 C.ar      1 <0>        0.00000
      5 C4         -3.8891   -4.1108    0.0000 C.ar      1 <0>        0.00000
      6 C5         -3.0641   -4.1108    0.0000 C.3       1 <0>        0.00000
      7 S1         -1.8266   -3.3963    0.0000 S.o2      1 <0>        0.00000
      8 O1         -1.8266   -4.2213    0.0000 O.2       1 <0>        0.00000
      9 O2         -1.8266   -2.5713    0.0000 O.2       1 <0>        0.00000
     10 N1         -1.0016   -3.3963    0.0000 N.pl3     1 <0>        0.00000
     11 C6         -0.5891   -2.6819    0.0000 C.3       1 <0>        0.00000
     12 C7         -0.9247   -1.9282    0.0000 C.3       1 <0>        0.00000
     13 C8         -0.3116   -1.3762    0.0000 C.3       1 <0>        0.00000
     14 C9          0.2314   -2.5956    0.0000 C.2       1 <0>        0.00000
     15 O3          0.7834   -3.2087    0.0000 O.2       1 <0>        0.00000
     16 N2          0.4029   -1.7887    0.0000 N.am      1 <0>        0.00000
     17 C10         1.1566   -1.4531    0.0000 C.3       1 <0>        0.00000
     18 C11         1.8240   -1.9380    0.0000 C.3       1 <0>        0.00000
     19 C12         1.2428   -0.6326    0.0000 C.2       1 <0>        0.00000
     20 O4          0.5754   -0.1477    0.0000 O.2       1 <0>        0.00000
     21 N3          1.9965   -0.2971    0.0000 N.am      1 <0>        0.00000
     22 C13         2.0827    0.5234    0.0000 C.3       1 <0>        0.00000
     23 C14         2.8364    0.8590    0.0000 C.3       1 <0>        0.00000
     24 O5          3.5038    0.3741    0.0000 O.3       1 <0>        0.00000
     25 C15         3.4176   -0.4464    0.0000 C.3       1 <0>        0.00000
     26 C16         2.6639   -0.7820    0.0000 C.3       1 <0>        0.00000
     27 S2         -4.3740   -3.4434    0.0000 S.3       1 <0>        0.00000
     28 C17        -2.6516   -3.3963    0.0000 C.3       1 <0>        0.00000
     29 H1         -1.1723   -2.6513    0.0000 H         1 <0>        0.00000
     30 H2          1.0955   -2.0338    0.0000 H         1 <0>        0.00000
     31 H3         -5.1587   -4.5233    0.0000 H         1 <0>        0.00000
     32 H4         -4.3740   -4.7782    0.0000 H         1 <0>        0.00000
     33 H5         -3.0641   -4.1108    0.0000 H         1 <0>        0.00000
     34 H6         -3.0641   -4.1108    0.0000 H         1 <0>        0.00000
     35 H7         -1.0016   -3.3963    0.0000 H         1 <0>        0.00000
     36 H8         -0.9247   -1.9282    0.0000 H         1 <0>        0.00000
     37 H9         -0.9247   -1.9282    0.0000 H         1 <0>        0.00000
     38 H10        -0.3116   -1.3762    0.0000 H         1 <0>        0.00000
     39 H11        -0.3116   -1.3762    0.0000 H         1 <0>        0.00000
     40 H12         1.8240   -1.9380    0.0000 H         1 <0>        0.00000
     41 H13         1.8240   -1.9380    0.0000 H         1 <0>        0.00000
     42 H14         1.8240   -1.9380    0.0000 H         1 <0>        0.00000
     43 H15         2.0827    0.5234    0.0000 H         1 <0>        0.00000
     44 H16         2.0827    0.5234    0.0000 H         1 <0>        0.00000
     45 H17         2.8364    0.8590    0.0000 H         1 <0>        0.00000
     46 H18         2.8364    0.8590    0.0000 H         1 <0>        0.00000
     47 H19         3.4176   -0.4464    0.0000 H         1 <0>        0.00000
     48 H20         3.4176   -0.4464    0.0000 H         1 <0>        0.00000
     49 H21         2.6639   -0.7820    0.0000 H         1 <0>        0.00000
     50 H22         2.6639   -0.7820    0.0000 H         1 <0>        0.00000
     51 H23        -2.6516   -3.3963    0.0000 H         1 <0>        0.00000
     52 H24        -2.6516   -3.3963    0.0000 H         1 <0>        0.00000
@<TRIPOS>BOND
     1    1    2 1
     2    2   27 1
     3    2    3 2
     4    3    4 1
     5    4    5 2
     6    5    6 1
     7    5   27 1
     8    6   28 1
     9    7    8 2
    10    7    9 2
    11    7   10 1
    12    7   28 1
    13   10   11 1
    14   11   12 1
    15   11   14 1
    16   11   29 1
    17   12   13 1
    18   13   16 1
    19   14   15 2
    20   14   16 am
    21   16   17 1
    22   17   18 1
    23   17   19 1
    24   17   30 1
    25   19   20 2
    26   19   21 am
    27   21   22 1
    28   21   26 1
    29   22   23 1
    30   23   24 1
    31   24   25 1
    32   25   26 1
    33    3   31 1
    34    4   32 1
    35    6   33 1
    36    6   34 1
    37   10   35 1
    38   12   36 1
    39   12   37 1
    40   13   38 1
    41   13   39 1
    42   18   40 1
    43   18   41 1
    44   18   42 1
    45   22   43 1
    46   22   44 1
    47   23   45 1
    48   23   46 1
    49   25   47 1
    50   25   48 1
    51   26   49 1
    52   26   50 1
    53   28   51 1
    54   28   52 1
@<TRIPOS>SUBSTRUCTURE
     1 <0>         1 GROUP 0 A     ****
@<TRIPOS>MOLECULE
231
   34    36     1     0     0
SMALL
NO_CHARGES

@<TRIPOS>ATOM
      1 Cl1         2.8172   -2.3783    0.0000 Cl        1 <0>        0.00000
      2 O1          4.1516    2.3401    0.0000 O.3       1 <0>        0.00000
      3 O2          2.6107    2.3401    0.0000 O.2       1 <0>        0.00000
      4 N1          2.4543    0.9518    0.0000 N.am      1 <0>        0.00000
      5 N2          4.3080    0.9518    0.0000 N.2       1 <0>        0.00000
      6 C1          2.6378    0.1475    0.0000 C.ar      1 <0>        0.00000
      7 C2          3.3811   -0.2105    0.0000 C.ar      1 <0>        0.00000
      8 C3          4.1245    0.1475    0.0000 C.2       1 <0>        0.00000
      9 C4          3.7936    1.5968    0.0000 C.3       1 <0>        0.00000
     10 C5          2.9687    1.5968    0.0000 C.2       1 <0>        0.00000
     11 C6          4.7694   -0.3669    0.0000 C.ar      1 <0>        0.00000
     12 C7          3.4586   -1.0663    0.0000 C.ar      1 <0>        0.00000
     13 C8          1.9205   -0.3256    0.0000 C.ar      1 <0>        0.00000
     14 C9          1.6500    1.1354    0.0000 C.3       1 <0>        0.00000
     15 C10         2.7523   -1.5559    0.0000 C.ar      1 <0>        0.00000
     16 C11         1.9781   -1.1830    0.0000 C.ar      1 <0>        0.00000
     17 C12         5.5374   -0.0655    0.0000 C.ar      1 <0>        0.00000
     18 C13         4.6465   -1.1827    0.0000 C.ar      1 <0>        0.00000
     19 C14         6.1824   -0.5799    0.0000 C.ar      1 <0>        0.00000
     20 C15         5.2915   -1.6971    0.0000 C.ar      1 <0>        0.00000
     21 C16         6.0595   -1.3956    0.0000 C.ar      1 <0>        0.00000
     22 H1          4.1516    2.3401    0.0000 H         1 <0>        0.00000
     23 H2          3.7936    1.5968    0.0000 H         1 <0>        0.00000
     24 H3          3.4586   -1.0663    0.0000 H         1 <0>        0.00000
     25 H4          1.9205   -0.3256    0.0000 H         1 <0>        0.00000
     26 H5          1.6500    1.1354    0.0000 H         1 <0>        0.00000
     27 H6          1.6500    1.1354    0.0000 H         1 <0>        0.00000
     28 H7          1.6500    1.1354    0.0000 H         1 <0>        0.00000
     29 H8          1.9781   -1.1830    0.0000 H         1 <0>        0.00000
     30 H9          5.5374   -0.0655    0.0000 H         1 <0>        0.00000
     31 H10         4.6465   -1.1827    0.0000 H         1 <0>        0.00000
     32 H11         6.1824   -0.5799    0.0000 H         1 <0>        0.00000
     33 H12         5.2915   -1.6971    0.0000 H         1 <0>        0.00000
     34 H13         6.0595   -1.3956    0.0000 H         1 <0>        0.00000
@<TRIPOS>BOND
     1    1   15 1
     2    2    9 1
     3    3   10 2
     4    4    6 1
     5    4   10 am
     6    4   14 1
     7    5    8 2
     8    5    9 1
     9    6    7 ar
    10    6   13 ar
    11    7    8 1
    12    7   12 ar
    13    8   11 1
    14    9   10 1
    15   11   17 ar
    16   11   18 ar
    17   12   15 ar
    18   13   16 ar
    19   15   16 ar
    20   17   19 ar
    21   18   20 ar
    22   19   21 ar
    23   20   21 ar
    24    2   22 1
    25    9   23 1
    26   12   24 1
    27   13   25 1
    28   14   26 1
    29   14   27 1
    30   14   28 1
    31   16   29 1
    32   17   30 1
    33   18   31 1
    34   19   32 1
    35   20   33 1
    36   21   34 1
@<TRIPOS>SUBSTRUCTURE
     1 <0>         1 GROUP 0 A     ****
@<TRIPOS>MOLECULE
3B6
   39    40     1     0     0
SMALL
NO_CHARGES

@<TRIPOS>ATOM
      1 C1         -1.6739   -0.0310    0.0000 C.ar      1 <0>        0.00000
      2 C2         -2.3884    0.3815    0.0000 C.ar      1 <0>        0.00000
      3 I1         -3.1028   -0.0310    0.0000 I         1 <0>        0.00000
      4 C3         -2.3884    1.2065    0.0000 C.ar      1 <0>        0.00000
      5 C4         -3.1028    1.6190    0.0000 C.1       1 <0>        0.00000
      6 N1         -3.8173    2.0315    0.0000 N.1       1 <0>        0.00000
      7 C5         -1.6739    1.6190    0.0000 C.ar      1 <0>        0.00000
      8 C6         -0.9594    1.2065    0.0000 C.ar      1 <0>        0.00000
      9 C7         -0.9594    0.3815    0.0000 C.ar      1 <0>        0.00000
     10 N2         -0.2449   -0.0310    0.0000 N.am      1 <0>        0.00000
     11 C8          0.4695    0.3815    0.0000 C.2       1 <0>        0.00000
     12 O1          0.4695    1.2065    0.0000 O.2       1 <0>        0.00000
     13 C9          1.1840   -0.0310    0.0000 C.3       1 <0>        0.00000
     14 O2          0.7715   -0.7455    0.0000 O.3       1 <0>        0.00000
     15 C10         1.5965    0.6835    0.0000 C.3       1 <0>        0.00000
     16 C11         1.8985   -0.4435    0.0000 C.3       1 <0>        0.00000
     17 O3          2.6129   -0.0310    0.0000 O.3       1 <0>        0.00000
     18 C12         3.3274   -0.4435    0.0000 C.ar      1 <0>        0.00000
     19 C13         4.0419   -0.0310    0.0000 C.ar      1 <0>        0.00000
     20 C14         4.7564   -0.4435    0.0000 C.ar      1 <0>        0.00000
     21 C15         4.7564   -1.2685    0.0000 C.ar      1 <0>        0.00000
     22 C16         5.4708   -1.6810    0.0000 C.1       1 <0>        0.00000
     23 N3          6.1853   -2.0935    0.0000 N.1       1 <0>        0.00000
     24 C17         4.0419   -1.6810    0.0000 C.ar      1 <0>        0.00000
     25 C18         3.3274   -1.2685    0.0000 C.ar      1 <0>        0.00000
     26 H1         -1.6739   -0.0310    0.0000 H         1 <0>        0.00000
     27 H2         -1.6739    1.6190    0.0000 H         1 <0>        0.00000
     28 H3         -0.9594    1.2065    0.0000 H         1 <0>        0.00000
     29 H4         -0.2449   -0.0310    0.0000 H         1 <0>        0.00000
     30 H5          0.7715   -0.7455    0.0000 H         1 <0>        0.00000
     31 H6          1.5965    0.6835    0.0000 H         1 <0>        0.00000
     32 H7          1.5965    0.6835    0.0000 H         1 <0>        0.00000
     33 H8          1.5965    0.6835    0.0000 H         1 <0>        0.00000
     34 H9          1.8985   -0.4435    0.0000 H         1 <0>        0.00000
     35 H10         1.8985   -0.4435    0.0000 H         1 <0>        0.00000
     36 H11         4.0419   -0.0310    0.0000 H         1 <0>        0.00000
     37 H12         4.7564   -0.4435    0.0000 H         1 <0>        0.00000
     38 H13         4.0419   -1.6810    0.0000 H         1 <0>        0.00000
     39 H14         3.3274   -1.2685    0.0000 H         1 <0>        0.00000
@<TRIPOS>BOND
     1    1    2 ar
     2    1    9 ar
     3    2    3 1
     4    2    4 ar
     5    4    5 1
     6    4    7 ar
     7    5    6 3
     8    7    8 ar
     9    8    9 ar
    10    9   10 1
    11   10   11 am
    12   11   12 2
    13   11   13 1
    14   13   14 1
    15   13   15 1
    16   13   16 1
    17   16   17 1
    18   17   18 1
    19   18   19 ar
    20   18   25 ar
    21   19   20 ar
    22   20   21 ar
    23   21   22 1
    24   21   24 ar
    25   22   23 3
    26   24   25 ar
    27    1   26 1
    28    7   27 1
    29    8   28 1
    30   10   29 1
    31   14   30 1
    32   15   31 1
    33   15   32 1
    34   15   33 1
    35   16   34 1
    36   16   35 1
    37   19   36 1
    38   20   37 1
    39   24   38 1
    40   25   39 1
@<TRIPOS>SUBSTRUCTURE
     1 <0>         1 GROUP 0 A     ****
@<TRIPOS>MOLECULE
MiniDrugBank_141
   12    12     1     0     0
SMALL
NO_CHARGES

@<TRIPOS>ATOM
      1 S1          0.7145    2.0625    0.0000 S.3       1 <0>        0.00000
      2 C1          0.7145    1.2375    0.0000 C.ar      1 <0>        0.00000
      3 C2          1.4289    0.8250    0.0000 C.ar      1 <0>        0.00000
      4 C3          1.4289    0.0000    0.0000 C.ar      1 <0>        0.00000
      5 C4          0.7145   -0.4125    0.0000 C.ar      1 <0>        0.00000
      6 C5          0.0000    0.0000    0.0000 C.ar      1 <0>        0.00000
      7 N1          0.0000    0.8250    0.0000 N.ar      1 <0>        0.00000
      8 H1          0.7145    2.0625    0.0000 H         1 <0>        0.00000
      9 H2          1.4289    0.8250    0.0000 H         1 <0>        0.00000
     10 H3          1.4289    0.0000    0.0000 H         1 <0>        0.00000
     11 H4          0.7145   -0.4125    0.0000 H         1 <0>        0.00000
     12 H5          0.0000    0.0000    0.0000 H         1 <0>        0.00000
@<TRIPOS>BOND
     1    1    2 1
     2    2    3 ar
     3    3    4 ar
     4    4    5 ar
     5    5    6 ar
     6    6    7 ar
     7    2    7 ar
     8    1    8 1
     9    3    9 1
    10    4   10 1
    11    5   11 1
    12    6   12 1
@<TRIPOS>SUBSTRUCTURE
     1 <0>         1 GROUP 0 A     ****
@<TRIPOS>MOLECULE
MiniDrugBank_142
   54    54     1     0     0
SMALL
NO_CHARGES

@<TRIPOS>ATOM
      1 N1         -0.9506   -1.4843    0.0000 N.3       1 <0>        0.00000
      2 C1         -1.4907   -2.1079    0.0000 C.3       1 <0>        0.00000
      3 C2         -2.3009   -1.9520    0.0000 C.3       1 <0>        0.00000
      4 C3         -2.5709   -1.1725    0.0000 C.3       1 <0>        0.00000
      5 C4         -3.3810   -1.0166    0.0000 C.2       1 <0>        0.00000
      6 O1         -3.9211   -1.6402    0.0000 O.2       1 <0>        0.00000
      7 N2         -3.6511   -0.2370    0.0000 N.am      1 <0>        0.00000
      8 C5         -4.4612   -0.0811    0.0000 C.3       1 <0>        0.00000
      9 C6         -4.7313    0.6984    0.0000 C.3       1 <0>        0.00000
     10 S1         -5.5414    0.8543    0.0000 S.3       1 <0>        0.00000
     11 C7         -5.8114    1.6339    0.0000 C.3       1 <0>        0.00000
     12 O2         -5.2713    2.2575    0.0000 O.3       1 <0>        0.00000
     13 N3         -6.6216    1.7898    0.0000 N.pl3     1 <0>        0.00000
     14 O3         -7.1617    1.1662    0.0000 O.3       1 <0>        0.00000
     15 C8         -6.8916    2.5694    0.0000 C.ar      1 <0>        0.00000
     16 C9         -7.7017    2.7253    0.0000 C.ar      1 <0>        0.00000
     17 C10        -7.9718    3.5048    0.0000 C.ar      1 <0>        0.00000
     18 C11        -7.4317    4.1285    0.0000 C.ar      1 <0>        0.00000
     19 I1         -7.7017    4.9080    0.0000 I         1 <0>        0.00000
     20 C12        -6.6216    3.9726    0.0000 C.ar      1 <0>        0.00000
     21 C13        -6.3515    3.1930    0.0000 C.ar      1 <0>        0.00000
     22 C14        -5.0013   -0.7048    0.0000 C.2       1 <0>        0.00000
     23 O4         -5.8114   -0.5488    0.0000 O.2       1 <0>        0.00000
     24 N4         -4.7313   -1.4843    0.0000 N.am      1 <0>        0.00000
     25 C15        -5.2713   -2.1079    0.0000 C.3       1 <0>        0.00000
     26 C16        -5.0013   -2.8875    0.0000 C.2       1 <0>        0.00000
     27 O5         -4.1912   -3.0434    0.0000 O.3       1 <0>        0.00000
     28 O6         -5.5414   -3.5111    0.0000 O.2       1 <0>        0.00000
     29 C17        -1.2207   -2.8875    0.0000 C.2       1 <0>        0.00000
     30 O7         -0.4105   -3.0434    0.0000 O.3       1 <0>        0.00000
     31 O8         -1.7608   -3.5111    0.0000 O.2       1 <0>        0.00000
     32 H1         -0.9506   -1.4843    0.0000 H         1 <0>        0.00000
     33 H2         -0.9506   -1.4843    0.0000 H         1 <0>        0.00000
     34 H3         -1.4907   -2.1079    0.0000 H         1 <0>        0.00000
     35 H4         -2.3009   -1.9520    0.0000 H         1 <0>        0.00000
     36 H5         -2.3009   -1.9520    0.0000 H         1 <0>        0.00000
     37 H6         -2.5709   -1.1725    0.0000 H         1 <0>        0.00000
     38 H7         -2.5709   -1.1725    0.0000 H         1 <0>        0.00000
     39 H8         -3.6511   -0.2370    0.0000 H         1 <0>        0.00000
     40 H9         -4.4612   -0.0811    0.0000 H         1 <0>        0.00000
     41 H10        -4.7313    0.6984    0.0000 H         1 <0>        0.00000
     42 H11        -4.7313    0.6984    0.0000 H         1 <0>        0.00000
     43 H12        -5.8114    1.6339    0.0000 H         1 <0>        0.00000
     44 H13        -5.2713    2.2575    0.0000 H         1 <0>        0.00000
     45 H14        -7.1617    1.1662    0.0000 H         1 <0>        0.00000
     46 H15        -7.7017    2.7253    0.0000 H         1 <0>        0.00000
     47 H16        -7.9718    3.5048    0.0000 H         1 <0>        0.00000
     48 H17        -6.6216    3.9726    0.0000 H         1 <0>        0.00000
     49 H18        -6.3515    3.1930    0.0000 H         1 <0>        0.00000
     50 H19        -4.7313   -1.4843    0.0000 H         1 <0>        0.00000
     51 H20        -5.2713   -2.1079    0.0000 H         1 <0>        0.00000
     52 H21        -5.2713   -2.1079    0.0000 H         1 <0>        0.00000
     53 H22        -4.1912   -3.0434    0.0000 H         1 <0>        0.00000
     54 H23        -0.4105   -3.0434    0.0000 H         1 <0>        0.00000
@<TRIPOS>BOND
     1    1    2 1
     2    2    3 1
     3    3    4 1
     4    4    5 1
     5    5    6 2
     6    5    7 am
     7    7    8 1
     8    8    9 1
     9    9   10 1
    10   10   11 1
    11   11   12 1
    12   11   13 1
    13   13   14 1
    14   13   15 1
    15   15   16 ar
    16   16   17 ar
    17   17   18 ar
    18   18   19 1
    19   18   20 ar
    20   20   21 ar
    21   15   21 ar
    22    8   22 1
    23   22   23 2
    24   22   24 am
    25   24   25 1
    26   25   26 1
    27   26   27 1
    28   26   28 2
    29    2   29 1
    30   29   30 1
    31   29   31 2
    32    1   32 1
    33    1   33 1
    34    2   34 1
    35    3   35 1
    36    3   36 1
    37    4   37 1
    38    4   38 1
    39    7   39 1
    40    8   40 1
    41    9   41 1
    42    9   42 1
    43   11   43 1
    44   12   44 1
    45   14   45 1
    46   16   46 1
    47   17   47 1
    48   20   48 1
    49   21   49 1
    50   24   50 1
    51   25   51 1
    52   25   52 1
    53   27   53 1
    54   30   54 1
@<TRIPOS>SUBSTRUCTURE
     1 <0>         1 GROUP 0 A     ****
@<TRIPOS>MOLECULE
MiniDrugBank_143
   12    11     1     0     0
SMALL
NO_CHARGES

@<TRIPOS>ATOM
      1 C1          2.0625   -0.7145    0.0000 C.3       1 <0>        0.00000
      2 C2          1.2375   -0.7145    0.0000 C.3       1 <0>        0.00000
      3 O1          0.8250   -1.4289    0.0000 O.3       1 <0>        0.00000
      4 C3          0.8250    0.0000    0.0000 C.3       1 <0>        0.00000
      5 Br1         0.0000    0.0000    0.0000 Br        1 <0>        0.00000
      6 H1          2.0625   -0.7145    0.0000 H         1 <0>        0.00000
      7 H2          2.0625   -0.7145    0.0000 H         1 <0>        0.00000
      8 H3          2.0625   -0.7145    0.0000 H         1 <0>        0.00000
      9 H4          1.2375   -0.7145    0.0000 H         1 <0>        0.00000
     10 H5          0.8250   -1.4289    0.0000 H         1 <0>        0.00000
     11 H6          0.8250    0.0000    0.0000 H         1 <0>        0.00000
     12 H7          0.8250    0.0000    0.0000 H         1 <0>        0.00000
@<TRIPOS>BOND
     1    1    2 1
     2    2    3 1
     3    2    4 1
     4    4    5 1
     5    1    6 1
     6    1    7 1
     7    1    8 1
     8    2    9 1
     9    3   10 1
    10    4   11 1
    11    4   12 1
@<TRIPOS>SUBSTRUCTURE
     1 <0>         1 GROUP 0 A     ****
@<TRIPOS>MOLECULE
MiniDrugBank_144
   16    16     1     0     0
SMALL
NO_CHARGES

@<TRIPOS>ATOM
      1 O1          2.8579    0.0000    0.0000 O.3       1 <0>        0.00000
      2 C1          2.1434   -0.4125    0.0000 C.3       1 <0>        0.00000
      3 C2          1.4289    0.0000    0.0000 C.ar      1 <0>        0.00000
      4 C3          0.7145   -0.4125    0.0000 C.ar      1 <0>        0.00000
      5 C4          0.0000    0.0000    0.0000 C.ar      1 <0>        0.00000
      6 C5          0.0000    0.8250    0.0000 C.ar      1 <0>        0.00000
      7 C6          0.7145    1.2375    0.0000 C.ar      1 <0>        0.00000
      8 I1          0.7145    2.0625    0.0000 I         1 <0>        0.00000
      9 C7          1.4289    0.8250    0.0000 C.ar      1 <0>        0.00000
     10 H1          2.8579    0.0000    0.0000 H         1 <0>        0.00000
     11 H2          2.1434   -0.4125    0.0000 H         1 <0>        0.00000
     12 H3          2.1434   -0.4125    0.0000 H         1 <0>        0.00000
     13 H4          0.7145   -0.4125    0.0000 H         1 <0>        0.00000
     14 H5          0.0000    0.0000    0.0000 H         1 <0>        0.00000
     15 H6          0.0000    0.8250    0.0000 H         1 <0>        0.00000
     16 H7          1.4289    0.8250    0.0000 H         1 <0>        0.00000
@<TRIPOS>BOND
     1    1    2 1
     2    2    3 1
     3    3    4 ar
     4    4    5 ar
     5    5    6 ar
     6    6    7 ar
     7    7    8 1
     8    7    9 ar
     9    3    9 ar
    10    1   10 1
    11    2   11 1
    12    2   12 1
    13    4   13 1
    14    5   14 1
    15    6   15 1
    16    9   16 1
@<TRIPOS>SUBSTRUCTURE
     1 <0>         1 GROUP 0 A     ****
@<TRIPOS>MOLECULE
880
   23    24     1     0     0
SMALL
NO_CHARGES

@<TRIPOS>ATOM
      1 Cl1         2.8075    1.0170    0.0000 Cl        1 <0>        0.00000
      2 S1          5.6885   -0.6617    0.0000 S.o2      1 <0>        0.00000
      3 S2          2.8075   -0.6330    0.0000 S.o2      1 <0>        0.00000
      4 O1          6.0927   -1.3808    0.0000 O.2       1 <0>        0.00000
      5 O2          5.2677   -1.3713    0.0000 O.2       1 <0>        0.00000
      6 O3          3.2200   -1.3475    0.0000 O.2       1 <0>        0.00000
      7 O4          2.3950    0.0814    0.0000 O.2       1 <0>        0.00000
      8 N1          5.6885    1.0456    0.0000 N.pl3     1 <0>        0.00000
      9 N2          6.4360   -0.2377    0.0000 N.ar      1 <0>        0.00000
     10 N3          2.0930   -1.0455    0.0000 N.pl3     1 <0>        0.00000
     11 C1          4.9509   -0.2205    0.0000 C.ar      1 <0>        0.00000
     12 C2          4.9509    0.6045    0.0000 C.ar      1 <0>        0.00000
     13 C3          3.5220   -0.2205    0.0000 C.ar      1 <0>        0.00000
     14 C4          4.2365   -0.6330    0.0000 C.ar      1 <0>        0.00000
     15 C5          4.2365    1.0170    0.0000 C.ar      1 <0>        0.00000
     16 C6          3.5220    0.6045    0.0000 C.ar      1 <0>        0.00000
     17 C7          6.4360    0.6217    0.0000 C.ar      1 <0>        0.00000
     18 H1          5.6885    1.0456    0.0000 H         1 <0>        0.00000
     19 H2          2.0930   -1.0455    0.0000 H         1 <0>        0.00000
     20 H3          2.0930   -1.0455    0.0000 H         1 <0>        0.00000
     21 H4          4.2365   -0.6330    0.0000 H         1 <0>        0.00000
     22 H5          4.2365    1.0170    0.0000 H         1 <0>        0.00000
     23 H6          6.4360    0.6217    0.0000 H         1 <0>        0.00000
@<TRIPOS>BOND
     1    1   16 1
     2    2    4 2
     3    2    5 2
     4    2    9 1
     5    2   11 1
     6    3    6 2
     7    3    7 2
     8    3   10 1
     9    3   13 1
    10    8   12 1
    11    8   17 1
    12    9   17 2
    13   11   12 ar
    14   11   14 ar
    15   12   15 ar
    16   13   14 ar
    17   13   16 ar
    18   15   16 ar
    19    8   18 1
    20   10   19 1
    21   10   20 1
    22   14   21 1
    23   15   22 1
    24   17   23 1
@<TRIPOS>SUBSTRUCTURE
     1 <0>         1 GROUP 0 A     ****
@<TRIPOS>MOLECULE
A17
   53    57     1     0     0
SMALL
NO_CHARGES

@<TRIPOS>ATOM
      1 C1         -1.9969   -0.5963    0.0000 C.ar      1 <0>        0.00000
      2 C2         -1.9969    0.2287    0.0000 C.ar      1 <0>        0.00000
      3 C3         -1.2825    0.6412    0.0000 C.ar      1 <0>        0.00000
      4 C4         -0.5680    0.2287    0.0000 C.ar      1 <0>        0.00000
      5 C5         -2.7114   -1.0088    0.0000 C.ar      1 <0>        0.00000
      6 C6          0.8609   -0.5963    0.0000 C.ar      1 <0>        0.00000
      7 C7          1.5754   -1.0088    0.0000 C.ar      1 <0>        0.00000
      8 C8          0.1465   -1.8338    0.0000 C.ar      1 <0>        0.00000
      9 O1          2.2899    0.2287    0.0000 O.2       1 <0>        0.00000
     10 C9          0.8609   -2.2463    0.0000 C.ar      1 <0>        0.00000
     11 C10        -0.5680   -0.5963    0.0000 C.ar      1 <0>        0.00000
     12 C11        -1.2825   -1.0088    0.0000 C.ar      1 <0>        0.00000
     13 N1         -3.4259   -0.5963    0.0000 N.ar      1 <0>        0.00000
     14 N2         -3.4259    0.2287    0.0000 N.ar      1 <0>        0.00000
     15 C12        -2.7114    0.6412    0.0000 C.ar      1 <0>        0.00000
     16 C13         0.1465   -1.0088    0.0000 C.ar      1 <0>        0.00000
     17 C14         1.5754   -1.8338    0.0000 C.ar      1 <0>        0.00000
     18 C15        -0.5680   -2.2463    0.0000 C.3       1 <0>        0.00000
     19 C16         2.2899   -0.5963    0.0000 C.2       1 <0>        0.00000
     20 C17         3.7188   -0.5963    0.0000 C.3       1 <0>        0.00000
     21 C18         4.1313    0.1182    0.0000 C.3       1 <0>        0.00000
     22 C19         4.5438   -0.5963    0.0000 C.3       1 <0>        0.00000
     23 C20        -2.7114    1.4662    0.0000 C.ar      1 <0>        0.00000
     24 C21        -3.4259    1.8787    0.0000 C.ar      1 <0>        0.00000
     25 C22        -3.4259    2.7037    0.0000 C.ar      1 <0>        0.00000
     26 C23        -2.7114    3.1162    0.0000 C.ar      1 <0>        0.00000
     27 C24        -1.9969    2.7037    0.0000 C.ar      1 <0>        0.00000
     28 C25        -1.9969    1.8787    0.0000 C.ar      1 <0>        0.00000
     29 C26        -1.2825    1.4662    0.0000 C.3       1 <0>        0.00000
     30 N3          3.0044   -1.0088    0.0000 N.am      1 <0>        0.00000
     31 H1         -1.2825    0.6412    0.0000 H         1 <0>        0.00000
     32 H2         -0.5680    0.2287    0.0000 H         1 <0>        0.00000
     33 H3         -2.7114   -1.0088    0.0000 H         1 <0>        0.00000
     34 H4          0.8609   -0.5963    0.0000 H         1 <0>        0.00000
     35 H5          0.8609   -2.2463    0.0000 H         1 <0>        0.00000
     36 H6         -1.2825   -1.0088    0.0000 H         1 <0>        0.00000
     37 H7          1.5754   -1.8338    0.0000 H         1 <0>        0.00000
     38 H8         -0.5680   -2.2463    0.0000 H         1 <0>        0.00000
     39 H9         -0.5680   -2.2463    0.0000 H         1 <0>        0.00000
     40 H10        -0.5680   -2.2463    0.0000 H         1 <0>        0.00000
     41 H11         3.7188   -0.5963    0.0000 H         1 <0>        0.00000
     42 H12         4.1313    0.1182    0.0000 H         1 <0>        0.00000
     43 H13         4.1313    0.1182    0.0000 H         1 <0>        0.00000
     44 H14         4.5438   -0.5963    0.0000 H         1 <0>        0.00000
     45 H15         4.5438   -0.5963    0.0000 H         1 <0>        0.00000
     46 H16        -3.4259    1.8787    0.0000 H         1 <0>        0.00000
     47 H17        -3.4259    2.7037    0.0000 H         1 <0>        0.00000
     48 H18        -2.7114    3.1162    0.0000 H         1 <0>        0.00000
     49 H19        -1.9969    2.7037    0.0000 H         1 <0>        0.00000
     50 H20        -1.2825    1.4662    0.0000 H         1 <0>        0.00000
     51 H21        -1.2825    1.4662    0.0000 H         1 <0>        0.00000
     52 H22        -1.2825    1.4662    0.0000 H         1 <0>        0.00000
     53 H23         3.0044   -1.0088    0.0000 H         1 <0>        0.00000
@<TRIPOS>BOND
     1    1    2 ar
     2    1    5 ar
     3    1   12 ar
     4    2    3 ar
     5    2   15 ar
     6    3    4 ar
     7    4   11 ar
     8    5   13 ar
     9    6    7 ar
    10    6   16 ar
    11    7   17 ar
    12    7   19 1
    13    8   10 ar
    14    8   16 ar
    15    8   18 1
    16    9   19 2
    17   10   17 ar
    18   11   12 ar
    19   11   16 1
    20   13   14 ar
    21   14   15 ar
    22   15   23 1
    23   19   30 am
    24   20   21 1
    25   20   22 1
    26   20   30 1
    27   21   22 1
    28   23   24 ar
    29   23   28 ar
    30   24   25 ar
    31   25   26 ar
    32   26   27 ar
    33   27   28 ar
    34   28   29 1
    35    3   31 1
    36    4   32 1
    37    5   33 1
    38    6   34 1
    39   10   35 1
    40   12   36 1
    41   17   37 1
    42   18   38 1
    43   18   39 1
    44   18   40 1
    45   20   41 1
    46   21   42 1
    47   21   43 1
    48   22   44 1
    49   22   45 1
    50   24   46 1
    51   25   47 1
    52   26   48 1
    53   27   49 1
    54   29   50 1
    55   29   51 1
    56   29   52 1
    57   30   53 1
@<TRIPOS>SUBSTRUCTURE
     1 <0>         1 GROUP 0 A     ****
@<TRIPOS>MOLECULE
A55
   37    39     1     0     0
SMALL
NO_CHARGES

@<TRIPOS>ATOM
      1 C1         -2.0358    2.1650    0.0000 C.ar      1 <0>        0.00000
      2 C2         -2.7503    1.7525    0.0000 C.ar      1 <0>        0.00000
      3 C3         -2.7503    0.9275    0.0000 C.ar      1 <0>        0.00000
      4 C4         -2.0358    0.5150    0.0000 C.ar      1 <0>        0.00000
      5 C5         -1.3213    0.9275    0.0000 C.ar      1 <0>        0.00000
      6 C6         -1.3213    1.7525    0.0000 C.ar      1 <0>        0.00000
      7 F1         -0.6069    2.1650    0.0000 F         1 <0>        0.00000
      8 N1         -0.6069    0.5150    0.0000 N.pl3     1 <0>        0.00000
      9 C7         -0.6069   -0.3100    0.0000 C.3       1 <0>        0.00000
     10 N2         -1.3213   -0.7225    0.0000 N.2       1 <0>        0.00000
     11 C8         -2.0358   -0.3100    0.0000 C.2       1 <0>        0.00000
     12 N3         -2.7503   -0.7225    0.0000 N.pl3     1 <0>        0.00000
     13 C9          0.1076   -0.7225    0.0000 C.3       1 <0>        0.00000
     14 C10         0.8221   -0.3100    0.0000 C.3       1 <0>        0.00000
     15 N4          1.5365   -0.7225    0.0000 N.am      1 <0>        0.00000
     16 C11         2.2510   -0.3100    0.0000 C.2       1 <0>        0.00000
     17 C12         2.9655   -0.7225    0.0000 C.ar      1 <0>        0.00000
     18 C13         3.7192   -0.3870    0.0000 C.ar      1 <0>        0.00000
     19 C14         4.2712   -1.0001    0.0000 C.ar      1 <0>        0.00000
     20 O1          3.8587   -1.7145    0.0000 O.3       1 <0>        0.00000
     21 C15         3.0517   -1.5430    0.0000 C.ar      1 <0>        0.00000
     22 O2          2.2510    0.5150    0.0000 O.2       1 <0>        0.00000
     23 F2         -3.4648    0.5150    0.0000 F         1 <0>        0.00000
     24 H1         -0.1012   -0.0181    0.0000 H         1 <0>        0.00000
     25 H2         -2.0358    2.1650    0.0000 H         1 <0>        0.00000
     26 H3         -2.7503    1.7525    0.0000 H         1 <0>        0.00000
     27 H4         -0.6069    0.5150    0.0000 H         1 <0>        0.00000
     28 H5         -2.7503   -0.7225    0.0000 H         1 <0>        0.00000
     29 H6         -2.7503   -0.7225    0.0000 H         1 <0>        0.00000
     30 H7          0.1076   -0.7225    0.0000 H         1 <0>        0.00000
     31 H8          0.1076   -0.7225    0.0000 H         1 <0>        0.00000
     32 H9          0.8221   -0.3100    0.0000 H         1 <0>        0.00000
     33 H10         0.8221   -0.3100    0.0000 H         1 <0>        0.00000
     34 H11         1.5365   -0.7225    0.0000 H         1 <0>        0.00000
     35 H12         3.7192   -0.3870    0.0000 H         1 <0>        0.00000
     36 H13         4.2712   -1.0001    0.0000 H         1 <0>        0.00000
     37 H14         3.0517   -1.5430    0.0000 H         1 <0>        0.00000
@<TRIPOS>BOND
     1    1    2 ar
     2    1    6 ar
     3    2    3 ar
     4    3    4 ar
     5    3   23 1
     6    4    5 ar
     7    4   11 1
     8    5    6 ar
     9    5    8 1
    10    6    7 1
    11    8    9 1
    12    9   10 1
    13    9   13 1
    14    9   24 1
    15   10   11 2
    16   11   12 1
    17   13   14 1
    18   14   15 1
    19   15   16 am
    20   16   17 1
    21   16   22 2
    22   17   18 1
    23   17   21 2
    24   18   19 2
    25   19   20 1
    26   20   21 1
    27    1   25 1
    28    2   26 1
    29    8   27 1
    30   12   28 1
    31   12   29 1
    32   13   30 1
    33   13   31 1
    34   14   32 1
    35   14   33 1
    36   15   34 1
    37   18   35 1
    38   19   36 1
    39   21   37 1
@<TRIPOS>SUBSTRUCTURE
     1 <0>         1 GROUP 0 A     ****
@<TRIPOS>MOLECULE
MiniDrugBank_148
   32    32     1     0     0
SMALL
NO_CHARGES

@<TRIPOS>ATOM
      1 C1          2.8579   -0.8250    0.0000 C.3       1 <0>        0.00000
      2 N1          2.1434   -0.4125    0.0000 N.4       1 <0>        0.00000
      3 C2          2.5559    0.3020    0.0000 C.3       1 <0>        0.00000
      4 C3          1.7309   -1.1270    0.0000 C.3       1 <0>        0.00000
      5 C4          1.4289    0.0000    0.0000 C.ar      1 <0>        0.00000
      6 C5          0.7145   -0.4125    0.0000 C.ar      1 <0>        0.00000
      7 C6          0.0000    0.0000    0.0000 C.ar      1 <0>        0.00000
      8 C7          0.0000    0.8250    0.0000 C.ar      1 <0>        0.00000
      9 C8          0.7145    1.2375    0.0000 C.ar      1 <0>        0.00000
     10 C9          1.4289    0.8250    0.0000 C.ar      1 <0>        0.00000
     11 C10         0.7145    2.0625    0.0000 C.3       1 <0>        0.00000
     12 O1          1.5395    2.0625    0.0000 O.3       1 <0>        0.00000
     13 O2         -0.1105    2.0625    0.0000 O.3       1 <0>        0.00000
     14 C11         0.7145    2.8875    0.0000 C.3       1 <0>        0.00000
     15 F1          0.7145    3.7125    0.0000 F         1 <0>        0.00000
     16 F2          1.5395    2.8875    0.0000 F         1 <0>        0.00000
     17 F3         -0.1105    2.8875    0.0000 F         1 <0>        0.00000
     18 H1          2.8579   -0.8250    0.0000 H         1 <0>        0.00000
     19 H2          2.8579   -0.8250    0.0000 H         1 <0>        0.00000
     20 H3          2.8579   -0.8250    0.0000 H         1 <0>        0.00000
     21 H4          2.5559    0.3020    0.0000 H         1 <0>        0.00000
     22 H5          2.5559    0.3020    0.0000 H         1 <0>        0.00000
     23 H6          2.5559    0.3020    0.0000 H         1 <0>        0.00000
     24 H7          1.7309   -1.1270    0.0000 H         1 <0>        0.00000
     25 H8          1.7309   -1.1270    0.0000 H         1 <0>        0.00000
     26 H9          1.7309   -1.1270    0.0000 H         1 <0>        0.00000
     27 H10         0.7145   -0.4125    0.0000 H         1 <0>        0.00000
     28 H11         0.0000    0.0000    0.0000 H         1 <0>        0.00000
     29 H12         0.0000    0.8250    0.0000 H         1 <0>        0.00000
     30 H13         1.4289    0.8250    0.0000 H         1 <0>        0.00000
     31 H14         1.5395    2.0625    0.0000 H         1 <0>        0.00000
     32 H15        -0.1105    2.0625    0.0000 H         1 <0>        0.00000
@<TRIPOS>BOND
     1    1    2 1
     2    2    3 1
     3    2    4 1
     4    2    5 1
     5    5    6 ar
     6    6    7 ar
     7    7    8 ar
     8    8    9 ar
     9    9   10 ar
    10    5   10 ar
    11    9   11 1
    12   11   12 1
    13   11   13 1
    14   11   14 1
    15   14   15 1
    16   14   16 1
    17   14   17 1
    18    1   18 1
    19    1   19 1
    20    1   20 1
    21    3   21 1
    22    3   22 1
    23    3   23 1
    24    4   24 1
    25    4   25 1
    26    4   26 1
    27    6   27 1
    28    7   28 1
    29    8   29 1
    30   10   30 1
    31   12   31 1
    32   13   32 1
@<TRIPOS>SUBSTRUCTURE
     1 <0>         1 GROUP 0 A     ****
@<TRIPOS>MOLECULE
NBL
   52    53     1     0     0
SMALL
NO_CHARGES

@<TRIPOS>ATOM
      1 C1          0.7792   -1.9404    0.0000 C.3       1 <0>        0.00000
      2 C2          0.7792   -1.1154    0.0000 C.3       1 <0>        0.00000
      3 C3          1.4937   -0.7029    0.0000 C.3       1 <0>        0.00000
      4 C4          0.0647   -0.7029    0.0000 C.3       1 <0>        0.00000
      5 C5          0.0647    0.1221    0.0000 C.3       1 <0>        0.00000
      6 N1         -0.6497    0.5346    0.0000 N.am      1 <0>        0.00000
      7 C6         -1.3642    0.1221    0.0000 C.2       1 <0>        0.00000
      8 O1         -1.3642   -0.7029    0.0000 O.2       1 <0>        0.00000
      9 O2         -2.0787    0.5346    0.0000 O.3       1 <0>        0.00000
     10 C7         -2.7932    0.1221    0.0000 C.3       1 <0>        0.00000
     11 C8         -3.5076    0.5346    0.0000 C.ar      1 <0>        0.00000
     12 C9         -4.2221    0.1221    0.0000 C.ar      1 <0>        0.00000
     13 C10        -4.9366    0.5346    0.0000 C.ar      1 <0>        0.00000
     14 C11        -4.9366    1.3596    0.0000 C.ar      1 <0>        0.00000
     15 C12        -4.2221    1.7721    0.0000 C.ar      1 <0>        0.00000
     16 C13        -3.5076    1.3596    0.0000 C.ar      1 <0>        0.00000
     17 C14         0.7792    0.5346    0.0000 C.2       1 <0>        0.00000
     18 O3          0.7792    1.3596    0.0000 O.2       1 <0>        0.00000
     19 N2          1.4937    0.1221    0.0000 N.am      1 <0>        0.00000
     20 C15         2.2081    0.5346    0.0000 C.3       1 <0>        0.00000
     21 C16         2.2944    1.3551    0.0000 C.3       1 <0>        0.00000
     22 C17         3.1013    1.5266    0.0000 C.3       1 <0>        0.00000
     23 N3          3.5138    0.8121    0.0000 N.3       1 <0>        0.00000
     24 C18         2.9618    0.1990    0.0000 C.3       1 <0>        0.00000
     25 C19         4.3343    0.7259    0.0000 C.1       1 <0>        0.00000
     26 N4          5.1548    0.6397    0.0000 N.1       1 <0>        0.00000
     27 H1         -0.4410   -0.1699    0.0000 H         1 <0>        0.00000
     28 H2          1.7184    0.8526    0.0000 H         1 <0>        0.00000
     29 H3          0.7792   -1.9404    0.0000 H         1 <0>        0.00000
     30 H4          0.7792   -1.9404    0.0000 H         1 <0>        0.00000
     31 H5          0.7792   -1.9404    0.0000 H         1 <0>        0.00000
     32 H6          0.7792   -1.1154    0.0000 H         1 <0>        0.00000
     33 H7          1.4937   -0.7029    0.0000 H         1 <0>        0.00000
     34 H8          1.4937   -0.7029    0.0000 H         1 <0>        0.00000
     35 H9          1.4937   -0.7029    0.0000 H         1 <0>        0.00000
     36 H10         0.0647   -0.7029    0.0000 H         1 <0>        0.00000
     37 H11         0.0647   -0.7029    0.0000 H         1 <0>        0.00000
     38 H12        -0.6497    0.5346    0.0000 H         1 <0>        0.00000
     39 H13        -2.7932    0.1221    0.0000 H         1 <0>        0.00000
     40 H14        -2.7932    0.1221    0.0000 H         1 <0>        0.00000
     41 H15        -4.2221    0.1221    0.0000 H         1 <0>        0.00000
     42 H16        -4.9366    0.5346    0.0000 H         1 <0>        0.00000
     43 H17        -4.9366    1.3596    0.0000 H         1 <0>        0.00000
     44 H18        -4.2221    1.7721    0.0000 H         1 <0>        0.00000
     45 H19        -3.5076    1.3596    0.0000 H         1 <0>        0.00000
     46 H20         1.4937    0.1221    0.0000 H         1 <0>        0.00000
     47 H21         2.2944    1.3551    0.0000 H         1 <0>        0.00000
     48 H22         2.2944    1.3551    0.0000 H         1 <0>        0.00000
     49 H23         3.1013    1.5266    0.0000 H         1 <0>        0.00000
     50 H24         3.1013    1.5266    0.0000 H         1 <0>        0.00000
     51 H25         2.9618    0.1990    0.0000 H         1 <0>        0.00000
     52 H26         2.9618    0.1990    0.0000 H         1 <0>        0.00000
@<TRIPOS>BOND
     1    1    2 1
     2    2    3 1
     3    2    4 1
     4    4    5 1
     5    5    6 1
     6    5   17 1
     7    5   27 1
     8    6    7 am
     9    7    8 2
    10    7    9 1
    11    9   10 1
    12   10   11 1
    13   11   12 ar
    14   11   16 ar
    15   12   13 ar
    16   13   14 ar
    17   14   15 ar
    18   15   16 ar
    19   17   18 2
    20   17   19 am
    21   19   20 1
    22   20   21 1
    23   20   24 1
    24   20   28 1
    25   21   22 1
    26   22   23 1
    27   23   24 1
    28   23   25 1
    29   25   26 3
    30    1   29 1
    31    1   30 1
    32    1   31 1
    33    2   32 1
    34    3   33 1
    35    3   34 1
    36    3   35 1
    37    4   36 1
    38    4   37 1
    39    6   38 1
    40   10   39 1
    41   10   40 1
    42   12   41 1
    43   13   42 1
    44   14   43 1
    45   15   44 1
    46   16   45 1
    47   19   46 1
    48   21   47 1
    49   21   48 1
    50   22   49 1
    51   22   50 1
    52   24   51 1
    53   24   52 1
@<TRIPOS>SUBSTRUCTURE
     1 <0>         1 GROUP 0 A     ****
@<TRIPOS>MOLECULE
TYI
   24    24     1     0     0
SMALL
NO_CHARGES

@<TRIPOS>ATOM
      1 N1         -0.0572    1.2630    0.0000 N.3       1 <0>        0.00000
      2 C1          0.6573    0.8505    0.0000 C.3       1 <0>        0.00000
      3 C2          0.6573    0.0255    0.0000 C.3       1 <0>        0.00000
      4 C3         -0.0572   -0.3870    0.0000 C.ar      1 <0>        0.00000
      5 C4         -0.0572   -1.2120    0.0000 C.ar      1 <0>        0.00000
      6 C5         -0.7716   -1.6245    0.0000 C.ar      1 <0>        0.00000
      7 C6         -0.7716    0.0255    0.0000 C.ar      1 <0>        0.00000
      8 C7         -1.4861   -0.3870    0.0000 C.ar      1 <0>        0.00000
      9 C8         -1.4861   -1.2120    0.0000 C.ar      1 <0>        0.00000
     10 O1         -2.2006   -1.6245    0.0000 O.3       1 <0>        0.00000
     11 C9          1.3718    1.2630    0.0000 C.2       1 <0>        0.00000
     12 O2          1.3718    2.0880    0.0000 O.2       1 <0>        0.00000
     13 O3          2.0863    0.8505    0.0000 O.3       1 <0>        0.00000
     14 I1         -0.7716   -2.4495    0.0000 I         1 <0>        0.00000
     15 I2         -2.2006    0.0255    0.0000 I         1 <0>        0.00000
     16 H1          0.1516    0.5585    0.0000 H         1 <0>        0.00000
     17 H2         -0.0572    1.2630    0.0000 H         1 <0>        0.00000
     18 H3         -0.0572    1.2630    0.0000 H         1 <0>        0.00000
     19 H4          0.6573    0.0255    0.0000 H         1 <0>        0.00000
     20 H5          0.6573    0.0255    0.0000 H         1 <0>        0.00000
     21 H6         -0.0572   -1.2120    0.0000 H         1 <0>        0.00000
     22 H7         -0.7716    0.0255    0.0000 H         1 <0>        0.00000
     23 H8         -2.2006   -1.6245    0.0000 H         1 <0>        0.00000
     24 H9          2.0863    0.8505    0.0000 H         1 <0>        0.00000
@<TRIPOS>BOND
     1    1    2 1
     2    2    3 1
     3    2   11 1
     4    2   16 1
     5    3    4 1
     6    4    5 ar
     7    4    7 ar
     8    5    6 ar
     9    6    9 ar
    10    6   14 1
    11    7    8 ar
    12    8    9 ar
    13    8   15 1
    14    9   10 1
    15   11   12 2
    16   11   13 1
    17    1   17 1
    18    1   18 1
    19    3   19 1
    20    3   20 1
    21    5   21 1
    22    7   22 1
    23   10   23 1
    24   13   24 1
@<TRIPOS>SUBSTRUCTURE
     1 <0>         1 GROUP 0 A     ****
@<TRIPOS>MOLECULE
918
   48    50     1     0     0
SMALL
NO_CHARGES

@<TRIPOS>ATOM
      1 S1          3.6703   -0.5207    0.0000 S.o2      1 <0>        0.00000
      2 O1          4.0828   -1.2351    0.0000 O.2       1 <0>        0.00000
      3 O2          3.2577    0.1938    0.0000 O.2       1 <0>        0.00000
      4 N1          2.9558   -0.9332    0.0000 N.pl3     1 <0>        0.00000
      5 N2          7.3088   -1.5972    0.0000 N.pl3     1 <0>        0.00000
      6 N3          8.6288    1.4693    0.0000 N.3       1 <0>        0.00000
      7 C1          2.8695   -1.7537    0.0000 C.3       1 <0>        0.00000
      8 C2          2.2021   -0.5976    0.0000 C.3       1 <0>        0.00000
      9 C3          2.0625   -1.9253    0.0000 C.3       1 <0>        0.00000
     10 C4          1.6500   -1.2107    0.0000 C.3       1 <0>        0.00000
     11 C5          4.3847   -0.1082    0.0000 C.3       1 <0>        0.00000
     12 C6          5.0993   -0.5207    0.0000 C.ar      1 <0>        0.00000
     13 C7          6.5282   -0.5207    0.0000 C.ar      1 <0>        0.00000
     14 C8          5.8137   -0.1082    0.0000 C.ar      1 <0>        0.00000
     15 C9          7.3088   -0.2693    0.0000 C.ar      1 <0>        0.00000
     16 C10         6.5282   -1.3457    0.0000 C.ar      1 <0>        0.00000
     17 C11         5.0993   -1.3457    0.0000 C.ar      1 <0>        0.00000
     18 C12         7.5652    0.5149    0.0000 C.3       1 <0>        0.00000
     19 C13         5.8137   -1.7582    0.0000 C.ar      1 <0>        0.00000
     20 C14         7.7903   -0.9332    0.0000 C.ar      1 <0>        0.00000
     21 C15         8.3724    0.6851    0.0000 C.3       1 <0>        0.00000
     22 C16         8.0778    2.0833    0.0000 C.3       1 <0>        0.00000
     23 C17         9.4361    1.6394    0.0000 C.3       1 <0>        0.00000
     24 H1          7.3088   -1.5972    0.0000 H         1 <0>        0.00000
     25 H2          2.8695   -1.7537    0.0000 H         1 <0>        0.00000
     26 H3          2.8695   -1.7537    0.0000 H         1 <0>        0.00000
     27 H4          2.2021   -0.5976    0.0000 H         1 <0>        0.00000
     28 H5          2.2021   -0.5976    0.0000 H         1 <0>        0.00000
     29 H6          2.0625   -1.9253    0.0000 H         1 <0>        0.00000
     30 H7          2.0625   -1.9253    0.0000 H         1 <0>        0.00000
     31 H8          1.6500   -1.2107    0.0000 H         1 <0>        0.00000
     32 H9          1.6500   -1.2107    0.0000 H         1 <0>        0.00000
     33 H10         4.3847   -0.1082    0.0000 H         1 <0>        0.00000
     34 H11         4.3847   -0.1082    0.0000 H         1 <0>        0.00000
     35 H12         5.8137   -0.1082    0.0000 H         1 <0>        0.00000
     36 H13         5.0993   -1.3457    0.0000 H         1 <0>        0.00000
     37 H14         7.5652    0.5149    0.0000 H         1 <0>        0.00000
     38 H15         7.5652    0.5149    0.0000 H         1 <0>        0.00000
     39 H16         5.8137   -1.7582    0.0000 H         1 <0>        0.00000
     40 H17         7.7903   -0.9332    0.0000 H         1 <0>        0.00000
     41 H18         8.3724    0.6851    0.0000 H         1 <0>        0.00000
     42 H19         8.3724    0.6851    0.0000 H         1 <0>        0.00000
     43 H20         8.0778    2.0833    0.0000 H         1 <0>        0.00000
     44 H21         8.0778    2.0833    0.0000 H         1 <0>        0.00000
     45 H22         8.0778    2.0833    0.0000 H         1 <0>        0.00000
     46 H23         9.4361    1.6394    0.0000 H         1 <0>        0.00000
     47 H24         9.4361    1.6394    0.0000 H         1 <0>        0.00000
     48 H25         9.4361    1.6394    0.0000 H         1 <0>        0.00000
@<TRIPOS>BOND
     1    1    2 2
     2    1    3 2
     3    1    4 1
     4    1   11 1
     5    4    7 1
     6    4    8 1
     7    5   16 1
     8    5   20 1
     9    6   21 1
    10    6   22 1
    11    6   23 1
    12    7    9 1
    13    8   10 1
    14    9   10 1
    15   11   12 1
    16   12   14 ar
    17   12   17 ar
    18   13   14 ar
    19   13   15 1
    20   13   16 ar
    21   15   18 1
    22   15   20 2
    23   16   19 ar
    24   17   19 ar
    25   18   21 1
    26    5   24 1
    27    7   25 1
    28    7   26 1
    29    8   27 1
    30    8   28 1
    31    9   29 1
    32    9   30 1
    33   10   31 1
    34   10   32 1
    35   11   33 1
    36   11   34 1
    37   14   35 1
    38   17   36 1
    39   18   37 1
    40   18   38 1
    41   19   39 1
    42   20   40 1
    43   21   41 1
    44   21   42 1
    45   22   43 1
    46   22   44 1
    47   22   45 1
    48   23   46 1
    49   23   47 1
    50   23   48 1
@<TRIPOS>SUBSTRUCTURE
     1 <0>         1 GROUP 0 A     ****
@<TRIPOS>MOLECULE
927
   35    35     1     0     0
SMALL
NO_CHARGES

@<TRIPOS>ATOM
      1 S1          6.3947   -0.0210    0.0000 S.3       1 <0>        0.00000
      2 S2          2.8147    0.3182    0.0000 S.o2      1 <0>        0.00000
      3 S3          8.8723    0.4664    0.0000 S.3       1 <0>        0.00000
      4 O1          3.0696   -0.4664    0.0000 O.2       1 <0>        0.00000
      5 O2          2.5598    1.1028    0.0000 O.2       1 <0>        0.00000
      6 N1          3.5993    0.5731    0.0000 N.2       1 <0>        0.00000
      7 N2          8.4599   -0.8030    0.0000 N.ar      1 <0>        0.00000
      8 N3          4.0409   -0.7859    0.0000 N.pl3     1 <0>        0.00000
      9 N4          9.9119   -0.5731    0.0000 N.2       1 <0>        0.00000
     10 N5          2.0301    0.0632    0.0000 N.pl3     1 <0>        0.00000
     11 N6         11.3096   -0.2760    0.0000 N.pl3     1 <0>        0.00000
     12 N7         10.3534    0.7859    0.0000 N.pl3     1 <0>        0.00000
     13 C1          4.9970    0.2760    0.0000 C.3       1 <0>        0.00000
     14 C2          5.6101   -0.2760    0.0000 C.3       1 <0>        0.00000
     15 C3          7.0078   -0.5731    0.0000 C.3       1 <0>        0.00000
     16 C4          4.2124    0.0210    0.0000 C.2       1 <0>        0.00000
     17 C5          7.7924   -0.3182    0.0000 C.ar      1 <0>        0.00000
     18 C6          8.0474    0.4664    0.0000 C.ar      1 <0>        0.00000
     19 C7          9.1273   -0.3182    0.0000 C.ar      1 <0>        0.00000
     20 C8         10.5250   -0.0210    0.0000 C.2       1 <0>        0.00000
     21 H1          4.0409   -0.7859    0.0000 H         1 <0>        0.00000
     22 H2          4.0409   -0.7859    0.0000 H         1 <0>        0.00000
     23 H3          2.0301    0.0632    0.0000 H         1 <0>        0.00000
     24 H4          2.0301    0.0632    0.0000 H         1 <0>        0.00000
     25 H5         11.3096   -0.2760    0.0000 H         1 <0>        0.00000
     26 H6         11.3096   -0.2760    0.0000 H         1 <0>        0.00000
     27 H7         10.3534    0.7859    0.0000 H         1 <0>        0.00000
     28 H8         10.3534    0.7859    0.0000 H         1 <0>        0.00000
     29 H9          4.9970    0.2760    0.0000 H         1 <0>        0.00000
     30 H10         4.9970    0.2760    0.0000 H         1 <0>        0.00000
     31 H11         5.6101   -0.2760    0.0000 H         1 <0>        0.00000
     32 H12         5.6101   -0.2760    0.0000 H         1 <0>        0.00000
     33 H13         7.0078   -0.5731    0.0000 H         1 <0>        0.00000
     34 H14         7.0078   -0.5731    0.0000 H         1 <0>        0.00000
     35 H15         8.0474    0.4664    0.0000 H         1 <0>        0.00000
@<TRIPOS>BOND
     1    1   14 1
     2    1   15 1
     3    2    4 2
     4    2    5 2
     5    2    6 1
     6    2   10 1
     7    3   18 1
     8    3   19 1
     9    6   16 2
    10    7   17 1
    11    7   19 2
    12    8   16 1
    13    9   19 1
    14    9   20 2
    15   11   20 1
    16   12   20 1
    17   13   14 1
    18   13   16 1
    19   15   17 1
    20   17   18 2
    21    8   21 1
    22    8   22 1
    23   10   23 1
    24   10   24 1
    25   11   25 1
    26   11   26 1
    27   12   27 1
    28   12   28 1
    29   13   29 1
    30   13   30 1
    31   14   31 1
    32   14   32 1
    33   15   33 1
    34   15   34 1
    35   18   35 1
@<TRIPOS>SUBSTRUCTURE
     1 <0>         1 GROUP 0 A     ****
@<TRIPOS>MOLECULE
AIA
   41    42     1     0     0
SMALL
NO_CHARGES

@<TRIPOS>ATOM
      1 C1          1.5130    0.6759    0.0000 C.3       1 <0>        0.00000
      2 C2          1.1005   -0.5937    0.0000 C.3       1 <0>        0.00000
      3 C3          0.0610    0.4459    0.0000 C.2       1 <0>        0.00000
      4 C4          2.1805    0.1910    0.0000 C.3       1 <0>        0.00000
      5 C5          1.5130    1.5009    0.0000 C.1       1 <0>        0.00000
      6 C6          1.9255   -0.5937    0.0000 C.3       1 <0>        0.00000
      7 C7          0.6156   -1.2611    0.0000 C.3       1 <0>        0.00000
      8 C8         -0.5521   -0.1061    0.0000 C.3       1 <0>        0.00000
      9 N1          0.8456    0.1910    0.0000 N.am      1 <0>        0.00000
     10 O1         -0.1106    1.2529    0.0000 O.2       1 <0>        0.00000
     11 C9          1.5130    2.3259    0.0000 C.1       1 <0>        0.00000
     12 N2          0.9512   -2.0148    0.0000 N.3       1 <0>        0.00000
     13 C10        -1.3368    0.1488    0.0000 C.3       1 <0>        0.00000
     14 N3         -0.3806   -0.9131    0.0000 N.3       1 <0>        0.00000
     15 C11        -2.0042   -0.3361    0.0000 C.3       1 <0>        0.00000
     16 C12        -1.5917    0.9334    0.0000 C.3       1 <0>        0.00000
     17 C13        -2.6716    0.1488    0.0000 C.3       1 <0>        0.00000
     18 C14        -2.4167    0.9334    0.0000 C.3       1 <0>        0.00000
     19 H1          2.0333    0.9410    0.0000 H         1 <0>        0.00000
     20 H2          1.3656   -1.1139    0.0000 H         1 <0>        0.00000
     21 H3         -0.6735    0.4650    0.0000 H         1 <0>        0.00000
     22 H4          2.1805    0.1910    0.0000 H         1 <0>        0.00000
     23 H5          2.1805    0.1910    0.0000 H         1 <0>        0.00000
     24 H6          1.9255   -0.5937    0.0000 H         1 <0>        0.00000
     25 H7          1.9255   -0.5937    0.0000 H         1 <0>        0.00000
     26 H8          0.6156   -1.2611    0.0000 H         1 <0>        0.00000
     27 H9          0.6156   -1.2611    0.0000 H         1 <0>        0.00000
     28 H10         1.5130    2.3259    0.0000 H         1 <0>        0.00000
     29 H11         0.9512   -2.0148    0.0000 H         1 <0>        0.00000
     30 H12         0.9512   -2.0148    0.0000 H         1 <0>        0.00000
     31 H13        -1.3368    0.1488    0.0000 H         1 <0>        0.00000
     32 H14        -0.3806   -0.9131    0.0000 H         1 <0>        0.00000
     33 H15        -0.3806   -0.9131    0.0000 H         1 <0>        0.00000
     34 H16        -2.0042   -0.3361    0.0000 H         1 <0>        0.00000
     35 H17        -2.0042   -0.3361    0.0000 H         1 <0>        0.00000
     36 H18        -1.5917    0.9334    0.0000 H         1 <0>        0.00000
     37 H19        -1.5917    0.9334    0.0000 H         1 <0>        0.00000
     38 H20        -2.6716    0.1488    0.0000 H         1 <0>        0.00000
     39 H21        -2.6716    0.1488    0.0000 H         1 <0>        0.00000
     40 H22        -2.4167    0.9334    0.0000 H         1 <0>        0.00000
     41 H23        -2.4167    0.9334    0.0000 H         1 <0>        0.00000
@<TRIPOS>BOND
     1    1    4 1
     2    1    5 1
     3    1    9 1
     4    1   19 1
     5    2    6 1
     6    2    7 1
     7    2    9 1
     8    2   20 1
     9    3    8 1
    10    3    9 am
    11    3   10 2
    12    4    6 1
    13    5   11 3
    14    7   12 1
    15    8   13 1
    16    8   14 1
    17    8   21 1
    18   13   15 1
    19   13   16 1
    20   15   17 1
    21   16   18 1
    22   17   18 1
    23    4   22 1
    24    4   23 1
    25    6   24 1
    26    6   25 1
    27    7   26 1
    28    7   27 1
    29   11   28 1
    30   12   29 1
    31   12   30 1
    32   13   31 1
    33   14   32 1
    34   14   33 1
    35   15   34 1
    36   15   35 1
    37   16   36 1
    38   16   37 1
    39   17   38 1
    40   17   39 1
    41   18   40 1
    42   18   41 1
@<TRIPOS>SUBSTRUCTURE
     1 <0>         1 GROUP 0 A     ****
@<TRIPOS>MOLECULE
944
   92    93     1     0     0
SMALL
NO_CHARGES

@<TRIPOS>ATOM
      1 O1          9.8294   13.2993    0.0000 O.3       1 <0>        0.00000
      2 O2          4.8281    3.8116    0.0000 O.3       1 <0>        0.00000
      3 O3         10.5440   12.0618    0.0000 O.2       1 <0>        0.00000
      4 O4          4.1135    5.0491    0.0000 O.2       1 <0>        0.00000
      5 N1         11.2584   15.7743    0.0000 N.4       1 <0>        0.00000
      6 N2          3.3991    1.3365    0.0000 N.4       1 <0>        0.00000
      7 N3          9.1150   12.0618    0.0000 N.am      1 <0>        0.00000
      8 N4          5.5426    5.0491    0.0000 N.am      1 <0>        0.00000
      9 C1          7.6860    8.7617    0.0000 C.3       1 <0>        0.00000
     10 C2          6.9715    8.3492    0.0000 C.3       1 <0>        0.00000
     11 C3          7.6860    9.5867    0.0000 C.3       1 <0>        0.00000
     12 C4          6.9715    7.5242    0.0000 C.3       1 <0>        0.00000
     13 C5          8.4005    9.9992    0.0000 C.3       1 <0>        0.00000
     14 C6          6.2570    7.1117    0.0000 C.3       1 <0>        0.00000
     15 C7          8.4005   10.8242    0.0000 C.3       1 <0>        0.00000
     16 C8          6.2570    6.2866    0.0000 C.3       1 <0>        0.00000
     17 C9          9.1150   11.2367    0.0000 C.3       1 <0>        0.00000
     18 C10         5.5426    5.8741    0.0000 C.3       1 <0>        0.00000
     19 C11        11.2584   14.9493    0.0000 C.ar      1 <0>        0.00000
     20 C12         3.3991    2.1615    0.0000 C.ar      1 <0>        0.00000
     21 C13        11.2584   16.5994    0.0000 C.3       1 <0>        0.00000
     22 C14        12.0835   15.7743    0.0000 C.3       1 <0>        0.00000
     23 C15        10.4334   15.7743    0.0000 C.3       1 <0>        0.00000
     24 C16         3.3991    0.5115    0.0000 C.3       1 <0>        0.00000
     25 C17         2.5741    1.3365    0.0000 C.3       1 <0>        0.00000
     26 C18         4.2241    1.3365    0.0000 C.3       1 <0>        0.00000
     27 C19        10.5440   14.5368    0.0000 C.ar      1 <0>        0.00000
     28 C20         4.1135    2.5741    0.0000 C.ar      1 <0>        0.00000
     29 C21        11.9729   14.5368    0.0000 C.ar      1 <0>        0.00000
     30 C22         2.6846    2.5741    0.0000 C.ar      1 <0>        0.00000
     31 C23        10.5440   13.7118    0.0000 C.ar      1 <0>        0.00000
     32 C24         4.1135    3.3991    0.0000 C.ar      1 <0>        0.00000
     33 C25         9.8294   12.4743    0.0000 C.2       1 <0>        0.00000
     34 C26         4.8281    4.6366    0.0000 C.2       1 <0>        0.00000
     35 C27         8.4005   12.4743    0.0000 C.3       1 <0>        0.00000
     36 C28         6.2570    4.6366    0.0000 C.3       1 <0>        0.00000
     37 C29        11.9729   13.7118    0.0000 C.ar      1 <0>        0.00000
     38 C30         2.6846    3.3991    0.0000 C.ar      1 <0>        0.00000
     39 C31        11.2584   13.2993    0.0000 C.ar      1 <0>        0.00000
     40 C32         3.3991    3.8116    0.0000 C.ar      1 <0>        0.00000
     41 H1          7.6860    8.7617    0.0000 H         1 <0>        0.00000
     42 H2          7.6860    8.7617    0.0000 H         1 <0>        0.00000
     43 H3          6.9715    8.3492    0.0000 H         1 <0>        0.00000
     44 H4          6.9715    8.3492    0.0000 H         1 <0>        0.00000
     45 H5          7.6860    9.5867    0.0000 H         1 <0>        0.00000
     46 H6          7.6860    9.5867    0.0000 H         1 <0>        0.00000
     47 H7          6.9715    7.5242    0.0000 H         1 <0>        0.00000
     48 H8          6.9715    7.5242    0.0000 H         1 <0>        0.00000
     49 H9          8.4005    9.9992    0.0000 H         1 <0>        0.00000
     50 H10         8.4005    9.9992    0.0000 H         1 <0>        0.00000
     51 H11         6.2570    7.1117    0.0000 H         1 <0>        0.00000
     52 H12         6.2570    7.1117    0.0000 H         1 <0>        0.00000
     53 H13         8.4005   10.8242    0.0000 H         1 <0>        0.00000
     54 H14         8.4005   10.8242    0.0000 H         1 <0>        0.00000
     55 H15         6.2570    6.2866    0.0000 H         1 <0>        0.00000
     56 H16         6.2570    6.2866    0.0000 H         1 <0>        0.00000
     57 H17         9.1150   11.2367    0.0000 H         1 <0>        0.00000
     58 H18         9.1150   11.2367    0.0000 H         1 <0>        0.00000
     59 H19         5.5426    5.8741    0.0000 H         1 <0>        0.00000
     60 H20         5.5426    5.8741    0.0000 H         1 <0>        0.00000
     61 H21        11.2584   16.5994    0.0000 H         1 <0>        0.00000
     62 H22        11.2584   16.5994    0.0000 H         1 <0>        0.00000
     63 H23        11.2584   16.5994    0.0000 H         1 <0>        0.00000
     64 H24        12.0835   15.7743    0.0000 H         1 <0>        0.00000
     65 H25        12.0835   15.7743    0.0000 H         1 <0>        0.00000
     66 H26        12.0835   15.7743    0.0000 H         1 <0>        0.00000
     67 H27        10.4334   15.7743    0.0000 H         1 <0>        0.00000
     68 H28        10.4334   15.7743    0.0000 H         1 <0>        0.00000
     69 H29        10.4334   15.7743    0.0000 H         1 <0>        0.00000
     70 H30         3.3991    0.5115    0.0000 H         1 <0>        0.00000
     71 H31         3.3991    0.5115    0.0000 H         1 <0>        0.00000
     72 H32         3.3991    0.5115    0.0000 H         1 <0>        0.00000
     73 H33         2.5741    1.3365    0.0000 H         1 <0>        0.00000
     74 H34         2.5741    1.3365    0.0000 H         1 <0>        0.00000
     75 H35         2.5741    1.3365    0.0000 H         1 <0>        0.00000
     76 H36         4.2241    1.3365    0.0000 H         1 <0>        0.00000
     77 H37         4.2241    1.3365    0.0000 H         1 <0>        0.00000
     78 H38         4.2241    1.3365    0.0000 H         1 <0>        0.00000
     79 H39        10.5440   14.5368    0.0000 H         1 <0>        0.00000
     80 H40         4.1135    2.5741    0.0000 H         1 <0>        0.00000
     81 H41        11.9729   14.5368    0.0000 H         1 <0>        0.00000
     82 H42         2.6846    2.5741    0.0000 H         1 <0>        0.00000
     83 H43         8.4005   12.4743    0.0000 H         1 <0>        0.00000
     84 H44         8.4005   12.4743    0.0000 H         1 <0>        0.00000
     85 H45         8.4005   12.4743    0.0000 H         1 <0>        0.00000
     86 H46         6.2570    4.6366    0.0000 H         1 <0>        0.00000
     87 H47         6.2570    4.6366    0.0000 H         1 <0>        0.00000
     88 H48         6.2570    4.6366    0.0000 H         1 <0>        0.00000
     89 H49        11.9729   13.7118    0.0000 H         1 <0>        0.00000
     90 H50         2.6846    3.3991    0.0000 H         1 <0>        0.00000
     91 H51        11.2584   13.2993    0.0000 H         1 <0>        0.00000
     92 H52         3.3991    3.8116    0.0000 H         1 <0>        0.00000
@<TRIPOS>BOND
     1    1   31 1
     2    1   33 1
     3    2   32 1
     4    2   34 1
     5    3   33 2
     6    4   34 2
     7    5   19 1
     8    5   21 1
     9    5   22 1
    10    5   23 1
    11    6   20 1
    12    6   24 1
    13    6   25 1
    14    6   26 1
    15    7   17 1
    16    7   33 am
    17    7   35 1
    18    8   18 1
    19    8   34 am
    20    8   36 1
    21    9   10 1
    22    9   11 1
    23   10   12 1
    24   11   13 1
    25   12   14 1
    26   13   15 1
    27   14   16 1
    28   15   17 1
    29   16   18 1
    30   19   27 ar
    31   19   29 ar
    32   20   28 ar
    33   20   30 ar
    34   27   31 ar
    35   28   32 ar
    36   29   37 ar
    37   30   38 ar
    38   31   39 ar
    39   32   40 ar
    40   37   39 ar
    41   38   40 ar
    42    9   41 1
    43    9   42 1
    44   10   43 1
    45   10   44 1
    46   11   45 1
    47   11   46 1
    48   12   47 1
    49   12   48 1
    50   13   49 1
    51   13   50 1
    52   14   51 1
    53   14   52 1
    54   15   53 1
    55   15   54 1
    56   16   55 1
    57   16   56 1
    58   17   57 1
    59   17   58 1
    60   18   59 1
    61   18   60 1
    62   21   61 1
    63   21   62 1
    64   21   63 1
    65   22   64 1
    66   22   65 1
    67   22   66 1
    68   23   67 1
    69   23   68 1
    70   23   69 1
    71   24   70 1
    72   24   71 1
    73   24   72 1
    74   25   73 1
    75   25   74 1
    76   25   75 1
    77   26   76 1
    78   26   77 1
    79   26   78 1
    80   27   79 1
    81   28   80 1
    82   29   81 1
    83   30   82 1
    84   35   83 1
    85   35   84 1
    86   35   85 1
    87   36   86 1
    88   36   87 1
    89   36   88 1
    90   37   89 1
    91   38   90 1
    92   39   91 1
    93   40   92 1
@<TRIPOS>SUBSTRUCTURE
     1 <0>         1 GROUP 0 A     ****
@<TRIPOS>MOLECULE
MiniDrugBank_155
   88    91     1     0     0
SMALL
NO_CHARGES

@<TRIPOS>ATOM
      1 C1          6.9377  -11.8238    0.0000 C.ar      1 <0>        0.00000
      2 C2          6.2232  -12.2363    0.0000 C.ar      1 <0>        0.00000
      3 C3          6.2232  -13.0613    0.0000 C.ar      1 <0>        0.00000
      4 C4          6.9377  -13.4739    0.0000 C.ar      1 <0>        0.00000
      5 C5          7.6522  -13.0613    0.0000 C.ar      1 <0>        0.00000
      6 C6          7.6522  -12.2363    0.0000 C.ar      1 <0>        0.00000
      7 C7          8.3666  -11.8238    0.0000 C.3       1 <0>        0.00000
      8 C8          8.3666  -13.4739    0.0000 C.3       1 <0>        0.00000
      9 C9          9.0811  -13.0613    0.0000 C.3       1 <0>        0.00000
     10 C10         9.0811  -12.2363    0.0000 C.3       1 <0>        0.00000
     11 C11         9.0811  -10.5863    0.0000 C.3       1 <0>        0.00000
     12 C12         8.3666  -10.9988    0.0000 C.3       1 <0>        0.00000
     13 C13         9.7956  -11.8238    0.0000 C.3       1 <0>        0.00000
     14 C14         9.7956  -10.9988    0.0000 C.3       1 <0>        0.00000
     15 C15        10.5802  -10.7438    0.0000 C.3       1 <0>        0.00000
     16 C16        10.5802  -12.0787    0.0000 C.3       1 <0>        0.00000
     17 C17        11.0651  -11.4113    0.0000 C.3       1 <0>        0.00000
     18 O1          5.5087  -13.4738    0.0000 O.3       1 <0>        0.00000
     19 H1          8.3666  -12.6488    0.0000 H         1 <0>        0.00000
     20 H2          9.7956  -12.6488    0.0000 H         1 <0>        0.00000
     21 C18         9.7956  -13.4738    0.0000 C.3       1 <0>        0.00000
     22 C19        10.5100  -13.0613    0.0000 C.3       1 <0>        0.00000
     23 C20        11.2245  -13.4738    0.0000 C.3       1 <0>        0.00000
     24 C21        11.9390  -13.0613    0.0000 C.3       1 <0>        0.00000
     25 C22        12.6534  -13.4738    0.0000 C.3       1 <0>        0.00000
     26 C23        13.3679  -13.0613    0.0000 C.3       1 <0>        0.00000
     27 C24        14.0824  -13.4738    0.0000 C.3       1 <0>        0.00000
     28 C25        14.7969  -13.0613    0.0000 C.3       1 <0>        0.00000
     29 C26        15.5113  -13.4738    0.0000 C.3       1 <0>        0.00000
     30 S1         16.2258  -13.0613    0.0000 S.o       1 <0>        0.00000
     31 O2         16.2258  -12.2363    0.0000 O.2       1 <0>        0.00000
     32 C27        16.9403  -13.4738    0.0000 C.3       1 <0>        0.00000
     33 C28        17.6547  -13.0613    0.0000 C.3       1 <0>        0.00000
     34 C29        18.3692  -13.4738    0.0000 C.3       1 <0>        0.00000
     35 C30        19.0837  -13.0613    0.0000 C.3       1 <0>        0.00000
     36 C31        19.7982  -13.4738    0.0000 C.3       1 <0>        0.00000
     37 F1         18.6712  -12.3469    0.0000 F         1 <0>        0.00000
     38 F2         19.4962  -12.3469    0.0000 F         1 <0>        0.00000
     39 F3         20.5126  -13.0613    0.0000 F         1 <0>        0.00000
     40 F4         19.7982  -14.2988    0.0000 F         1 <0>        0.00000
     41 F5         20.3815  -14.0572    0.0000 F         1 <0>        0.00000
     42 O3         10.7937   -9.9470    0.0000 O.3       1 <0>        0.00000
     43 C32         9.7956  -10.1738    0.0000 C.3       1 <0>        0.00000
     44 H3          6.9377  -11.8238    0.0000 H         1 <0>        0.00000
     45 H4          6.2232  -12.2363    0.0000 H         1 <0>        0.00000
     46 H5          6.9377  -13.4739    0.0000 H         1 <0>        0.00000
     47 H6          8.3666  -13.4739    0.0000 H         1 <0>        0.00000
     48 H7          8.3666  -13.4739    0.0000 H         1 <0>        0.00000
     49 H8          9.0811  -13.0613    0.0000 H         1 <0>        0.00000
     50 H9          9.0811  -12.2363    0.0000 H         1 <0>        0.00000
     51 H10         9.0811  -10.5863    0.0000 H         1 <0>        0.00000
     52 H11         9.0811  -10.5863    0.0000 H         1 <0>        0.00000
     53 H12         8.3666  -10.9988    0.0000 H         1 <0>        0.00000
     54 H13         8.3666  -10.9988    0.0000 H         1 <0>        0.00000
     55 H14        10.5802  -10.7438    0.0000 H         1 <0>        0.00000
     56 H15        10.5802  -12.0787    0.0000 H         1 <0>        0.00000
     57 H16        10.5802  -12.0787    0.0000 H         1 <0>        0.00000
     58 H17        11.0651  -11.4113    0.0000 H         1 <0>        0.00000
     59 H18        11.0651  -11.4113    0.0000 H         1 <0>        0.00000
     60 H19         5.5087  -13.4738    0.0000 H         1 <0>        0.00000
     61 H20         9.7956  -13.4738    0.0000 H         1 <0>        0.00000
     62 H21         9.7956  -13.4738    0.0000 H         1 <0>        0.00000
     63 H22        10.5100  -13.0613    0.0000 H         1 <0>        0.00000
     64 H23        10.5100  -13.0613    0.0000 H         1 <0>        0.00000
     65 H24        11.2245  -13.4738    0.0000 H         1 <0>        0.00000
     66 H25        11.2245  -13.4738    0.0000 H         1 <0>        0.00000
     67 H26        11.9390  -13.0613    0.0000 H         1 <0>        0.00000
     68 H27        11.9390  -13.0613    0.0000 H         1 <0>        0.00000
     69 H28        12.6534  -13.4738    0.0000 H         1 <0>        0.00000
     70 H29        12.6534  -13.4738    0.0000 H         1 <0>        0.00000
     71 H30        13.3679  -13.0613    0.0000 H         1 <0>        0.00000
     72 H31        13.3679  -13.0613    0.0000 H         1 <0>        0.00000
     73 H32        14.0824  -13.4738    0.0000 H         1 <0>        0.00000
     74 H33        14.0824  -13.4738    0.0000 H         1 <0>        0.00000
     75 H34        14.7969  -13.0613    0.0000 H         1 <0>        0.00000
     76 H35        14.7969  -13.0613    0.0000 H         1 <0>        0.00000
     77 H36        15.5113  -13.4738    0.0000 H         1 <0>        0.00000
     78 H37        15.5113  -13.4738    0.0000 H         1 <0>        0.00000
     79 H38        16.9403  -13.4738    0.0000 H         1 <0>        0.00000
     80 H39        16.9403  -13.4738    0.0000 H         1 <0>        0.00000
     81 H40        17.6547  -13.0613    0.0000 H         1 <0>        0.00000
     82 H41        17.6547  -13.0613    0.0000 H         1 <0>        0.00000
     83 H42        18.3692  -13.4738    0.0000 H         1 <0>        0.00000
     84 H43        18.3692  -13.4738    0.0000 H         1 <0>        0.00000
     85 H44        10.7937   -9.9470    0.0000 H         1 <0>        0.00000
     86 H45         9.7956  -10.1738    0.0000 H         1 <0>        0.00000
     87 H46         9.7956  -10.1738    0.0000 H         1 <0>        0.00000
     88 H47         9.7956  -10.1738    0.0000 H         1 <0>        0.00000
@<TRIPOS>BOND
     1    1    2 ar
     2    2    3 ar
     3    3    4 ar
     4    4    5 ar
     5    1    6 ar
     6    6    7 1
     7    5    6 ar
     8    5    8 1
     9    8    9 1
    10    9   10 1
    11    7   12 1
    12    7   10 1
    13   10   13 1
    14   11   12 1
    15   11   14 1
    16   14   15 1
    17   13   14 1
    18   13   16 1
    19   16   17 1
    20   15   17 1
    21    3   18 1
    22    7   19 1
    23   13   20 1
    24    9   21 1
    25   21   22 1
    26   22   23 1
    27   23   24 1
    28   24   25 1
    29   25   26 1
    30   26   27 1
    31   27   28 1
    32   28   29 1
    33   29   30 1
    34   30   31 2
    35   30   32 1
    36   32   33 1
    37   33   34 1
    38   34   35 1
    39   35   36 1
    40   35   37 1
    41   35   38 1
    42   36   39 1
    43   36   40 1
    44   36   41 1
    45   15   42 1
    46   14   43 1
    47    1   44 1
    48    2   45 1
    49    4   46 1
    50    8   47 1
    51    8   48 1
    52    9   49 1
    53   10   50 1
    54   11   51 1
    55   11   52 1
    56   12   53 1
    57   12   54 1
    58   15   55 1
    59   16   56 1
    60   16   57 1
    61   17   58 1
    62   17   59 1
    63   18   60 1
    64   21   61 1
    65   21   62 1
    66   22   63 1
    67   22   64 1
    68   23   65 1
    69   23   66 1
    70   24   67 1
    71   24   68 1
    72   25   69 1
    73   25   70 1
    74   26   71 1
    75   26   72 1
    76   27   73 1
    77   27   74 1
    78   28   75 1
    79   28   76 1
    80   29   77 1
    81   29   78 1
    82   32   79 1
    83   32   80 1
    84   33   81 1
    85   33   82 1
    86   34   83 1
    87   34   84 1
    88   42   85 1
    89   43   86 1
    90   43   87 1
    91   43   88 1
@<TRIPOS>SUBSTRUCTURE
     1 <0>         1 GROUP 0 A     ****
@<TRIPOS>MOLECULE
948
   61    64     1     0     0
SMALL
NO_CHARGES

@<TRIPOS>ATOM
      1 S1          7.6202   -0.9711    0.0000 S.3       1 <0>        0.00000
      2 S2          5.2617    3.5480    0.0000 S.o2      1 <0>        0.00000
      3 O1          5.4215   -2.6390    0.0000 O.2       1 <0>        0.00000
      4 O2          7.3231   -3.7037    0.0000 O.3       1 <0>        0.00000
      5 O3          8.6820   -3.2622    0.0000 O.2       1 <0>        0.00000
      6 O4          4.4090   -1.6464    0.0000 O.2       1 <0>        0.00000
      7 O5          2.8777    0.9037    0.0000 O.2       1 <0>        0.00000
      8 O6          5.3520    1.7554    0.0000 O.2       1 <0>        0.00000
      9 O7          5.7796    2.9058    0.0000 O.2       1 <0>        0.00000
     10 O8          4.7439    4.1902    0.0000 O.2       1 <0>        0.00000
     11 N1          6.8355   -2.0510    0.0000 N.am      1 <0>        0.00000
     12 N2          5.4215   -0.6381    0.0000 N.am      1 <0>        0.00000
     13 N3          4.2572    0.5311    0.0000 N.am      1 <0>        0.00000
     14 N4          3.8902    1.9121    0.0000 N.am      1 <0>        0.00000
     15 N5          4.6195    3.0301    0.0000 N.am      1 <0>        0.00000
     16 C1          6.8355   -1.2260    0.0000 C.3       1 <0>        0.00000
     17 C2          8.1050   -1.6385    0.0000 C.3       1 <0>        0.00000
     18 C3          7.6202   -2.3060    0.0000 C.3       1 <0>        0.00000
     19 C4          6.0037   -1.2227    0.0000 C.3       1 <0>        0.00000
     20 C5          6.0037   -2.0545    0.0000 C.2       1 <0>        0.00000
     21 C6          8.7725   -1.1536    0.0000 C.3       1 <0>        0.00000
     22 C7          8.7725   -2.1235    0.0000 C.3       1 <0>        0.00000
     23 C8          7.8751   -3.0906    0.0000 C.2       1 <0>        0.00000
     24 C9          4.6242   -0.8500    0.0000 C.2       1 <0>        0.00000
     25 C10         4.0420   -0.2654    0.0000 C.3       1 <0>        0.00000
     26 C11         3.2447   -0.4773    0.0000 C.ar      1 <0>        0.00000
     27 C12         3.6750    1.1157    0.0000 C.2       1 <0>        0.00000
     28 C13         3.3723    2.5543    0.0000 C.3       1 <0>        0.00000
     29 C14         3.8231    3.2452    0.0000 C.3       1 <0>        0.00000
     30 C15         4.6610    2.2061    0.0000 C.2       1 <0>        0.00000
     31 C16         3.0295   -1.2737    0.0000 C.ar      1 <0>        0.00000
     32 C17         2.6625    0.1073    0.0000 C.ar      1 <0>        0.00000
     33 C18         2.2322   -1.4857    0.0000 C.ar      1 <0>        0.00000
     34 C19         1.8652   -0.1046    0.0000 C.ar      1 <0>        0.00000
     35 C20         5.9039    4.0659    0.0000 C.3       1 <0>        0.00000
     36 C21         1.6500   -0.9011    0.0000 C.ar      1 <0>        0.00000
     37 H1          6.7336   -0.5740    0.0000 H         1 <0>        0.00000
     38 H2          7.3231   -3.7037    0.0000 H         1 <0>        0.00000
     39 H3          5.4215   -0.6381    0.0000 H         1 <0>        0.00000
     40 H4          4.2572    0.5311    0.0000 H         1 <0>        0.00000
     41 H5          7.6202   -2.3060    0.0000 H         1 <0>        0.00000
     42 H6          6.0037   -1.2227    0.0000 H         1 <0>        0.00000
     43 H7          8.7725   -1.1536    0.0000 H         1 <0>        0.00000
     44 H8          8.7725   -1.1536    0.0000 H         1 <0>        0.00000
     45 H9          8.7725   -1.1536    0.0000 H         1 <0>        0.00000
     46 H10         8.7725   -2.1235    0.0000 H         1 <0>        0.00000
     47 H11         8.7725   -2.1235    0.0000 H         1 <0>        0.00000
     48 H12         8.7725   -2.1235    0.0000 H         1 <0>        0.00000
     49 H13         4.0420   -0.2654    0.0000 H         1 <0>        0.00000
     50 H14         3.3723    2.5543    0.0000 H         1 <0>        0.00000
     51 H15         3.3723    2.5543    0.0000 H         1 <0>        0.00000
     52 H16         3.8231    3.2452    0.0000 H         1 <0>        0.00000
     53 H17         3.8231    3.2452    0.0000 H         1 <0>        0.00000
     54 H18         3.0295   -1.2737    0.0000 H         1 <0>        0.00000
     55 H19         2.6625    0.1073    0.0000 H         1 <0>        0.00000
     56 H20         2.2322   -1.4857    0.0000 H         1 <0>        0.00000
     57 H21         1.8652   -0.1046    0.0000 H         1 <0>        0.00000
     58 H22         5.9039    4.0659    0.0000 H         1 <0>        0.00000
     59 H23         5.9039    4.0659    0.0000 H         1 <0>        0.00000
     60 H24         5.9039    4.0659    0.0000 H         1 <0>        0.00000
     61 H25         1.6500   -0.9011    0.0000 H         1 <0>        0.00000
@<TRIPOS>BOND
     1    1   16 1
     2    1   17 1
     3    2    9 2
     4    2   10 2
     5    2   15 1
     6    2   35 1
     7    3   20 2
     8    4   23 1
     9    5   23 2
    10    6   24 2
    11    7   27 2
    12    8   30 2
    13   11   16 1
    14   11   18 1
    15   11   20 am
    16   12   19 1
    17   12   24 am
    18   13   25 1
    19   13   27 am
    20   14   27 am
    21   14   28 1
    22   14   30 am
    23   15   29 1
    24   15   30 am
    25   16   19 1
    26   16   37 1
    27   17   18 1
    28   17   21 1
    29   17   22 1
    30   18   23 1
    31   19   20 1
    32   24   25 1
    33   25   26 1
    34   26   31 ar
    35   26   32 ar
    36   28   29 1
    37   31   33 ar
    38   32   34 ar
    39   33   36 ar
    40   34   36 ar
    41    4   38 1
    42   12   39 1
    43   13   40 1
    44   18   41 1
    45   19   42 1
    46   21   43 1
    47   21   44 1
    48   21   45 1
    49   22   46 1
    50   22   47 1
    51   22   48 1
    52   25   49 1
    53   28   50 1
    54   28   51 1
    55   29   52 1
    56   29   53 1
    57   31   54 1
    58   32   55 1
    59   33   56 1
    60   34   57 1
    61   35   58 1
    62   35   59 1
    63   35   60 1
    64   36   61 1
@<TRIPOS>SUBSTRUCTURE
     1 <0>         1 GROUP 0 A     ****
@<TRIPOS>MOLECULE
952
   48    50     1     0     0
SMALL
NO_CHARGES

@<TRIPOS>ATOM
      1 S1          3.0791   -0.5003    0.0000 S.o2      1 <0>        0.00000
      2 O1          3.4916    0.2142    0.0000 O.2       1 <0>        0.00000
      3 O2          2.6665   -1.2148    0.0000 O.2       1 <0>        0.00000
      4 N1          8.2010    1.6912    0.0000 N.3       1 <0>        0.00000
      5 N2          7.4321   -1.9892    0.0000 N.pl3     1 <0>        0.00000
      6 N3          2.3645   -0.0878    0.0000 N.pl3     1 <0>        0.00000
      7 C1          7.6884    0.1228    0.0000 C.3       1 <0>        0.00000
      8 C2          8.4957    0.2930    0.0000 C.3       1 <0>        0.00000
      9 C3          7.1374    0.7369    0.0000 C.3       1 <0>        0.00000
     10 C4          8.7520    1.0771    0.0000 C.3       1 <0>        0.00000
     11 C5          7.3937    1.5211    0.0000 C.3       1 <0>        0.00000
     12 C6          7.4321   -0.6613    0.0000 C.ar      1 <0>        0.00000
     13 C7          6.6515   -0.9128    0.0000 C.ar      1 <0>        0.00000
     14 C8          7.9136   -1.3253    0.0000 C.ar      1 <0>        0.00000
     15 C9          6.6515   -1.7378    0.0000 C.ar      1 <0>        0.00000
     16 C10         8.4573    2.4754    0.0000 C.3       1 <0>        0.00000
     17 C11         5.9370   -0.5003    0.0000 C.ar      1 <0>        0.00000
     18 C12         5.2224   -0.9128    0.0000 C.ar      1 <0>        0.00000
     19 C13         5.9370   -2.1503    0.0000 C.ar      1 <0>        0.00000
     20 C14         4.5080   -0.5003    0.0000 C.3       1 <0>        0.00000
     21 C15         5.2224   -1.7378    0.0000 C.ar      1 <0>        0.00000
     22 C16         3.7935   -0.9128    0.0000 C.3       1 <0>        0.00000
     23 C17         1.6500   -0.5003    0.0000 C.3       1 <0>        0.00000
     24 H1          7.4321   -1.9892    0.0000 H         1 <0>        0.00000
     25 H2          2.3645   -0.0878    0.0000 H         1 <0>        0.00000
     26 H3          7.6884    0.1228    0.0000 H         1 <0>        0.00000
     27 H4          8.4957    0.2930    0.0000 H         1 <0>        0.00000
     28 H5          8.4957    0.2930    0.0000 H         1 <0>        0.00000
     29 H6          7.1374    0.7369    0.0000 H         1 <0>        0.00000
     30 H7          7.1374    0.7369    0.0000 H         1 <0>        0.00000
     31 H8          8.7520    1.0771    0.0000 H         1 <0>        0.00000
     32 H9          8.7520    1.0771    0.0000 H         1 <0>        0.00000
     33 H10         7.3937    1.5211    0.0000 H         1 <0>        0.00000
     34 H11         7.3937    1.5211    0.0000 H         1 <0>        0.00000
     35 H12         7.9136   -1.3253    0.0000 H         1 <0>        0.00000
     36 H13         8.4573    2.4754    0.0000 H         1 <0>        0.00000
     37 H14         8.4573    2.4754    0.0000 H         1 <0>        0.00000
     38 H15         8.4573    2.4754    0.0000 H         1 <0>        0.00000
     39 H16         5.9370   -0.5003    0.0000 H         1 <0>        0.00000
     40 H17         5.9370   -2.1503    0.0000 H         1 <0>        0.00000
     41 H18         4.5080   -0.5003    0.0000 H         1 <0>        0.00000
     42 H19         4.5080   -0.5003    0.0000 H         1 <0>        0.00000
     43 H20         5.2224   -1.7378    0.0000 H         1 <0>        0.00000
     44 H21         3.7935   -0.9128    0.0000 H         1 <0>        0.00000
     45 H22         3.7935   -0.9128    0.0000 H         1 <0>        0.00000
     46 H23         1.6500   -0.5003    0.0000 H         1 <0>        0.00000
     47 H24         1.6500   -0.5003    0.0000 H         1 <0>        0.00000
     48 H25         1.6500   -0.5003    0.0000 H         1 <0>        0.00000
@<TRIPOS>BOND
     1    1    2 2
     2    1    3 2
     3    1    6 1
     4    1   22 1
     5    4   10 1
     6    4   11 1
     7    4   16 1
     8    5   14 1
     9    5   15 1
    10    6   23 1
    11    7    8 1
    12    7    9 1
    13    7   12 1
    14    8   10 1
    15    9   11 1
    16   12   13 1
    17   12   14 2
    18   13   15 ar
    19   13   17 ar
    20   15   19 ar
    21   17   18 ar
    22   18   20 1
    23   18   21 ar
    24   19   21 ar
    25   20   22 1
    26    5   24 1
    27    6   25 1
    28    7   26 1
    29    8   27 1
    30    8   28 1
    31    9   29 1
    32    9   30 1
    33   10   31 1
    34   10   32 1
    35   11   33 1
    36   11   34 1
    37   14   35 1
    38   16   36 1
    39   16   37 1
    40   16   38 1
    41   17   39 1
    42   19   40 1
    43   20   41 1
    44   20   42 1
    45   21   43 1
    46   22   44 1
    47   22   45 1
    48   23   46 1
    49   23   47 1
    50   23   48 1
@<TRIPOS>SUBSTRUCTURE
     1 <0>         1 GROUP 0 A     ****
@<TRIPOS>MOLECULE
246
   49    53     1     0     0
SMALL
NO_CHARGES

@<TRIPOS>ATOM
      1 Cl1         5.8073    3.0921    0.0000 Cl        1 <0>        0.00000
      2 S1          1.6500   -1.3068    0.0000 S.3       1 <0>        0.00000
      3 O1         10.0379    2.2671    0.0000 O.2       1 <0>        0.00000
      4 N1          5.0928    0.2045    0.0000 N.3       1 <0>        0.00000
      5 N2          3.6638   -0.6205    0.0000 N.pl3     1 <0>        0.00000
      6 N3          2.2004   -0.6988    0.0000 N.ar      1 <0>        0.00000
      7 N4          8.7314    2.9310    0.0000 N.am      1 <0>        0.00000
      8 C1          5.0928   -0.6205    0.0000 C.3       1 <0>        0.00000
      9 C2          4.3783    0.6170    0.0000 C.3       1 <0>        0.00000
     10 C3          4.3783   -1.0330    0.0000 C.3       1 <0>        0.00000
     11 C4          3.6638    0.2045    0.0000 C.3       1 <0>        0.00000
     12 C5          5.8073    0.6170    0.0000 C.3       1 <0>        0.00000
     13 C6          5.8073    1.4420    0.0000 C.3       1 <0>        0.00000
     14 C7          2.9494   -1.0330    0.0000 C.ar      1 <0>        0.00000
     15 C8          6.5218    1.8546    0.0000 C.ar      1 <0>        0.00000
     16 C9          2.8643   -1.8488    0.0000 C.ar      1 <0>        0.00000
     17 C10         7.9507    1.8546    0.0000 C.ar      1 <0>        0.00000
     18 C11         7.2362    1.4420    0.0000 C.ar      1 <0>        0.00000
     19 C12         7.9507    2.6796    0.0000 C.ar      1 <0>        0.00000
     20 C13         6.5218    2.6796    0.0000 C.ar      1 <0>        0.00000
     21 C14         8.7314    1.6031    0.0000 C.3       1 <0>        0.00000
     22 C15         2.0570   -2.0189    0.0000 C.ar      1 <0>        0.00000
     23 C16         7.2362    3.0921    0.0000 C.ar      1 <0>        0.00000
     24 C17         9.2129    2.2671    0.0000 C.2       1 <0>        0.00000
     25 C18         3.4153   -2.4628    0.0000 C.ar      1 <0>        0.00000
     26 C19         1.8007   -2.8031    0.0000 C.ar      1 <0>        0.00000
     27 C20         3.1590   -3.2470    0.0000 C.ar      1 <0>        0.00000
     28 C21         2.3517   -3.4171    0.0000 C.ar      1 <0>        0.00000
     29 H1          8.7314    2.9310    0.0000 H         1 <0>        0.00000
     30 H2          5.0928   -0.6205    0.0000 H         1 <0>        0.00000
     31 H3          5.0928   -0.6205    0.0000 H         1 <0>        0.00000
     32 H4          4.3783    0.6170    0.0000 H         1 <0>        0.00000
     33 H5          4.3783    0.6170    0.0000 H         1 <0>        0.00000
     34 H6          4.3783   -1.0330    0.0000 H         1 <0>        0.00000
     35 H7          4.3783   -1.0330    0.0000 H         1 <0>        0.00000
     36 H8          3.6638    0.2045    0.0000 H         1 <0>        0.00000
     37 H9          3.6638    0.2045    0.0000 H         1 <0>        0.00000
     38 H10         5.8073    0.6170    0.0000 H         1 <0>        0.00000
     39 H11         5.8073    0.6170    0.0000 H         1 <0>        0.00000
     40 H12         5.8073    1.4420    0.0000 H         1 <0>        0.00000
     41 H13         5.8073    1.4420    0.0000 H         1 <0>        0.00000
     42 H14         7.2362    1.4420    0.0000 H         1 <0>        0.00000
     43 H15         8.7314    1.6031    0.0000 H         1 <0>        0.00000
     44 H16         8.7314    1.6031    0.0000 H         1 <0>        0.00000
     45 H17         7.2362    3.0921    0.0000 H         1 <0>        0.00000
     46 H18         3.4153   -2.4628    0.0000 H         1 <0>        0.00000
     47 H19         1.8007   -2.8031    0.0000 H         1 <0>        0.00000
     48 H20         3.1590   -3.2470    0.0000 H         1 <0>        0.00000
     49 H21         2.3517   -3.4171    0.0000 H         1 <0>        0.00000
@<TRIPOS>BOND
     1    1   20 1
     2    2    6 1
     3    2   22 1
     4    3   24 2
     5    4    8 1
     6    4    9 1
     7    4   12 1
     8    5   10 1
     9    5   11 1
    10    5   14 1
    11    6   14 2
    12    7   19 1
    13    7   24 am
    14    8   10 1
    15    9   11 1
    16   12   13 1
    17   13   15 1
    18   14   16 1
    19   15   18 ar
    20   15   20 ar
    21   16   22 ar
    22   16   25 ar
    23   17   18 ar
    24   17   19 ar
    25   17   21 1
    26   19   23 ar
    27   20   23 ar
    28   21   24 1
    29   22   26 ar
    30   25   27 ar
    31   26   28 ar
    32   27   28 ar
    33    7   29 1
    34    8   30 1
    35    8   31 1
    36    9   32 1
    37    9   33 1
    38   10   34 1
    39   10   35 1
    40   11   36 1
    41   11   37 1
    42   12   38 1
    43   12   39 1
    44   13   40 1
    45   13   41 1
    46   18   42 1
    47   21   43 1
    48   21   44 1
    49   23   45 1
    50   25   46 1
    51   26   47 1
    52   27   48 1
    53   28   49 1
@<TRIPOS>SUBSTRUCTURE
     1 <0>         1 GROUP 0 A     ****
@<TRIPOS>MOLECULE
APJ
   41    45     1     0     0
SMALL
NO_CHARGES

@<TRIPOS>ATOM
      1 N1          0.0240    0.2612    0.0000 N.ar      1 <0>        0.00000
      2 N2         -1.4050    0.2612    0.0000 N.ar      1 <0>        0.00000
      3 N3          0.7384    1.4987    0.0000 N.pl3     1 <0>        0.00000
      4 N4          1.5391    0.2657    0.0000 N.pl3     1 <0>        0.00000
      5 N5          2.3461    0.0942    0.0000 N.ar      1 <0>        0.00000
      6 N6         -0.6905   -0.9763    0.0000 N.pl3     1 <0>        0.00000
      7 N7         -3.6185   -2.4687    0.0000 N.pl3     1 <0>        0.00000
      8 N8         -3.6185   -1.1339    0.0000 N.ar      1 <0>        0.00000
      9 C1         -0.6905   -0.1513    0.0000 C.ar      1 <0>        0.00000
     10 C2          0.0240    1.0862    0.0000 C.ar      1 <0>        0.00000
     11 C3         -0.6905    1.4987    0.0000 C.ar      1 <0>        0.00000
     12 C4         -1.4050    1.0862    0.0000 C.ar      1 <0>        0.00000
     13 C5          1.4529    1.0862    0.0000 C.ar      1 <0>        0.00000
     14 C6          2.7586    0.8087    0.0000 C.ar      1 <0>        0.00000
     15 C7          2.2066    1.4218    0.0000 C.ar      1 <0>        0.00000
     16 C8          3.5791    0.8949    0.0000 C.3       1 <0>        0.00000
     17 C9          4.3328    0.5593    0.0000 C.3       1 <0>        0.00000
     18 C10         4.2465    1.3798    0.0000 C.3       1 <0>        0.00000
     19 C11        -1.4050   -1.3888    0.0000 C.ar      1 <0>        0.00000
     20 C12        -2.1195   -0.9763    0.0000 C.ar      1 <0>        0.00000
     21 C13        -2.8339   -1.3888    0.0000 C.ar      1 <0>        0.00000
     22 C14        -2.8339   -2.2138    0.0000 C.ar      1 <0>        0.00000
     23 C15        -2.1195   -2.6263    0.0000 C.ar      1 <0>        0.00000
     24 C16        -1.4050   -2.2138    0.0000 C.ar      1 <0>        0.00000
     25 C17        -4.1035   -1.8013    0.0000 C.ar      1 <0>        0.00000
     26 H1          0.7384    1.4987    0.0000 H         1 <0>        0.00000
     27 H2          1.5391    0.2657    0.0000 H         1 <0>        0.00000
     28 H3         -0.6905   -0.9763    0.0000 H         1 <0>        0.00000
     29 H4         -3.6185   -2.4687    0.0000 H         1 <0>        0.00000
     30 H5         -0.6905    1.4987    0.0000 H         1 <0>        0.00000
     31 H6         -1.4050    1.0862    0.0000 H         1 <0>        0.00000
     32 H7          2.2066    1.4218    0.0000 H         1 <0>        0.00000
     33 H8          3.5791    0.8949    0.0000 H         1 <0>        0.00000
     34 H9          4.3328    0.5593    0.0000 H         1 <0>        0.00000
     35 H10         4.3328    0.5593    0.0000 H         1 <0>        0.00000
     36 H11         4.2465    1.3798    0.0000 H         1 <0>        0.00000
     37 H12         4.2465    1.3798    0.0000 H         1 <0>        0.00000
     38 H13        -2.1195   -0.9763    0.0000 H         1 <0>        0.00000
     39 H14        -2.1195   -2.6263    0.0000 H         1 <0>        0.00000
     40 H15        -1.4050   -2.2138    0.0000 H         1 <0>        0.00000
     41 H16        -4.1035   -1.8013    0.0000 H         1 <0>        0.00000
@<TRIPOS>BOND
     1    1    9 ar
     2    1   10 ar
     3    2   12 ar
     4    3   10 1
     5    4   13 1
     6    4    5 1
     7    6    9 1
     8    7   22 1
     9    8   21 1
    10    2    9 ar
    11   10   11 ar
    12   11   12 ar
    13    3   13 1
    14    5   14 2
    15   14   15 1
    16   13   15 2
    17   14   16 1
    18   16   17 1
    19   16   18 1
    20   17   18 1
    21    6   19 1
    22   19   20 ar
    23   20   21 ar
    24   21   22 ar
    25   22   23 ar
    26   23   24 ar
    27   19   24 ar
    28    7   25 1
    29    8   25 2
    30    3   26 1
    31    4   27 1
    32    6   28 1
    33    7   29 1
    34   11   30 1
    35   12   31 1
    36   15   32 1
    37   16   33 1
    38   17   34 1
    39   17   35 1
    40   18   36 1
    41   18   37 1
    42   20   38 1
    43   23   39 1
    44   24   40 1
    45   25   41 1
@<TRIPOS>SUBSTRUCTURE
     1 <0>         1 GROUP 0 A     ****
@<TRIPOS>MOLECULE
BIP
   24    24     1     0     0
SMALL
NO_CHARGES

@<TRIPOS>ATOM
      1 C1          1.5808    1.1185    0.0000 C.2       1 <0>        0.00000
      2 O1          1.5808    1.9435    0.0000 O.2       1 <0>        0.00000
      3 O2          2.2953    0.7060    0.0000 O.3       1 <0>        0.00000
      4 C2          0.8663    0.7060    0.0000 C.3       1 <0>        0.00000
      5 C3          0.1518    1.1185    0.0000 C.3       1 <0>        0.00000
      6 I1         -0.5626    0.7060    0.0000 I         1 <0>        0.00000
      7 C4          0.8663   -0.1190    0.0000 C.3       1 <0>        0.00000
      8 C5          0.1518   -0.5315    0.0000 C.ar      1 <0>        0.00000
      9 C6          0.1518   -1.3565    0.0000 C.ar      1 <0>        0.00000
     10 C7         -0.5626   -1.7690    0.0000 C.ar      1 <0>        0.00000
     11 C8         -1.2771   -1.3565    0.0000 C.ar      1 <0>        0.00000
     12 C9         -1.2771   -0.5315    0.0000 C.ar      1 <0>        0.00000
     13 C10        -0.5626   -0.1190    0.0000 C.ar      1 <0>        0.00000
     14 H1          0.8663    1.2899    0.0000 H         1 <0>        0.00000
     15 H2          2.2953    0.7060    0.0000 H         1 <0>        0.00000
     16 H3          0.1518    1.1185    0.0000 H         1 <0>        0.00000
     17 H4          0.1518    1.1185    0.0000 H         1 <0>        0.00000
     18 H5          0.8663   -0.1190    0.0000 H         1 <0>        0.00000
     19 H6          0.8663   -0.1190    0.0000 H         1 <0>        0.00000
     20 H7          0.1518   -1.3565    0.0000 H         1 <0>        0.00000
     21 H8         -0.5626   -1.7690    0.0000 H         1 <0>        0.00000
     22 H9         -1.2771   -1.3565    0.0000 H         1 <0>        0.00000
     23 H10        -1.2771   -0.5315    0.0000 H         1 <0>        0.00000
     24 H11        -0.5626   -0.1190    0.0000 H         1 <0>        0.00000
@<TRIPOS>BOND
     1    1    2 2
     2    1    3 1
     3    1    4 1
     4    4    5 1
     5    4    7 1
     6    4   14 1
     7    5    6 1
     8    7    8 1
     9    8    9 ar
    10    8   13 ar
    11    9   10 ar
    12   10   11 ar
    13   11   12 ar
    14   12   13 ar
    15    3   15 1
    16    5   16 1
    17    5   17 1
    18    7   18 1
    19    7   19 1
    20    9   20 1
    21   10   21 1
    22   11   22 1
    23   12   23 1
    24   13   24 1
@<TRIPOS>SUBSTRUCTURE
     1 <0>         1 GROUP 0 A     ****
@<TRIPOS>MOLECULE
ATT
   37    38     1     0     0
SMALL
NO_CHARGES

@<TRIPOS>ATOM
      1 C1          0.1148   -0.5029    0.0000 C.3       1 <0>        0.00000
      2 C2         -0.2977    0.2116    0.0000 C.2       1 <0>        0.00000
      3 C3         -1.5352    0.9261    0.0000 C.3       1 <0>        0.00000
      4 C4         -2.3602   -1.9318    0.0000 C.ar      1 <0>        0.00000
      5 C5         -2.7727   -1.2173    0.0000 C.ar      1 <0>        0.00000
      6 C6         -2.3602   -0.5029    0.0000 C.ar      1 <0>        0.00000
      7 C7         -1.5352   -0.5029    0.0000 C.ar      1 <0>        0.00000
      8 C8          2.5898    0.9261    0.0000 C.ar      1 <0>        0.00000
      9 C9          3.5818    1.8193    0.0000 C.ar      1 <0>        0.00000
     10 N1          2.8674    2.2318    0.0000 N.ar      1 <0>        0.00000
     11 N2          2.2543    1.6797    0.0000 N.ar      1 <0>        0.00000
     12 S1          3.4103    1.0123    0.0000 S.3       1 <0>        0.00000
     13 S2          4.3355    2.1548    0.0000 S.3       1 <0>        0.00000
     14 N3          2.1773    0.2116    0.0000 N.am      1 <0>        0.00000
     15 C10         1.3523    0.2116    0.0000 C.2       1 <0>        0.00000
     16 O1          0.9398    0.9261    0.0000 O.2       1 <0>        0.00000
     17 N4          0.9398   -0.5029    0.0000 N.am      1 <0>        0.00000
     18 O2          0.1148    0.9261    0.0000 O.2       1 <0>        0.00000
     19 N5         -1.1227    0.2116    0.0000 N.am      1 <0>        0.00000
     20 C11        -0.2977   -1.2173    0.0000 C.3       1 <0>        0.00000
     21 C12        -1.1227   -1.2173    0.0000 C.ar      1 <0>        0.00000
     22 C13        -1.5352   -1.9318    0.0000 C.ar      1 <0>        0.00000
     23 H1          0.4068    0.0028    0.0000 H         1 <0>        0.00000
     24 H2         -1.5352    0.9261    0.0000 H         1 <0>        0.00000
     25 H3         -1.5352    0.9261    0.0000 H         1 <0>        0.00000
     26 H4         -1.5352    0.9261    0.0000 H         1 <0>        0.00000
     27 H5         -2.3602   -1.9318    0.0000 H         1 <0>        0.00000
     28 H6         -2.7727   -1.2173    0.0000 H         1 <0>        0.00000
     29 H7         -2.3602   -0.5029    0.0000 H         1 <0>        0.00000
     30 H8         -1.5352   -0.5029    0.0000 H         1 <0>        0.00000
     31 H9          4.3355    2.1548    0.0000 H         1 <0>        0.00000
     32 H10         2.1773    0.2116    0.0000 H         1 <0>        0.00000
     33 H11         0.9398   -0.5029    0.0000 H         1 <0>        0.00000
     34 H12        -1.1227    0.2116    0.0000 H         1 <0>        0.00000
     35 H13        -0.2977   -1.2173    0.0000 H         1 <0>        0.00000
     36 H14        -0.2977   -1.2173    0.0000 H         1 <0>        0.00000
     37 H15        -1.5352   -1.9318    0.0000 H         1 <0>        0.00000
@<TRIPOS>BOND
     1    1    2 1
     2    1   17 1
     3    1   20 1
     4    1   23 1
     5    2   18 2
     6    2   19 am
     7    3   19 1
     8    4    5 ar
     9    4   22 ar
    10    5    6 ar
    11    6    7 ar
    12    7   21 ar
    13    8   11 2
    14    8   12 1
    15    8   14 1
    16    9   10 2
    17    9   12 1
    18    9   13 1
    19   10   11 1
    20   14   15 am
    21   15   16 2
    22   15   17 am
    23   20   21 1
    24   21   22 ar
    25    3   24 1
    26    3   25 1
    27    3   26 1
    28    4   27 1
    29    5   28 1
    30    6   29 1
    31    7   30 1
    32   13   31 1
    33   14   32 1
    34   17   33 1
    35   19   34 1
    36   20   35 1
    37   20   36 1
    38   22   37 1
@<TRIPOS>SUBSTRUCTURE
     1 <0>         1 GROUP 0 A     ****
@<TRIPOS>MOLECULE
AUP
   48    52     1     0     0
SMALL
NO_CHARGES

@<TRIPOS>ATOM
      1 C1          0.9733   -0.4914    0.0000 C.ar      1 <0>        0.00000
      2 C2          0.9733    0.3336    0.0000 C.ar      1 <0>        0.00000
      3 C3          1.6877    0.7461    0.0000 C.3       1 <0>        0.00000
      4 C4          2.4022    0.3336    0.0000 C.3       1 <0>        0.00000
      5 C5          2.4022   -0.4914    0.0000 C.3       1 <0>        0.00000
      6 C6          1.6877   -0.9039    0.0000 C.3       1 <0>        0.00000
      7 C7          0.1886   -0.7463    0.0000 C.ar      1 <0>        0.00000
      8 P1         -0.2963   -0.0789    0.0000 P.3       1 <0>        0.00000
      9 C8          0.1886    0.5885    0.0000 C.ar      1 <0>        0.00000
     10 N1         -0.8733    1.5447    0.0000 N.ar      1 <0>        0.00000
     11 C9         -1.1282    2.3293    0.0000 C.ar      1 <0>        0.00000
     12 C10        -0.5762    2.9424    0.0000 C.ar      1 <0>        0.00000
     13 C11         0.2308    2.7709    0.0000 C.ar      1 <0>        0.00000
     14 C12         0.4857    1.9863    0.0000 C.ar      1 <0>        0.00000
     15 C13        -0.0663    1.3732    0.0000 C.ar      1 <0>        0.00000
     16 C14        -2.7713   -0.0789    0.0000 C.ar      1 <0>        0.00000
     17 C15        -2.3588    0.6356    0.0000 C.ar      1 <0>        0.00000
     18 C16        -1.5338    0.6356    0.0000 C.ar      1 <0>        0.00000
     19 C17        -1.1213   -0.0789    0.0000 C.ar      1 <0>        0.00000
     20 C18        -1.5338   -0.7934    0.0000 C.ar      1 <0>        0.00000
     21 C19        -2.3588   -0.7934    0.0000 C.ar      1 <0>        0.00000
     22 N2         -0.8733   -1.7025    0.0000 N.ar      1 <0>        0.00000
     23 C20        -0.0663   -1.5310    0.0000 C.ar      1 <0>        0.00000
     24 C21         0.4857   -2.1441    0.0000 C.ar      1 <0>        0.00000
     25 C22         0.2308   -2.9287    0.0000 C.ar      1 <0>        0.00000
     26 C23        -0.5762   -3.1002    0.0000 C.ar      1 <0>        0.00000
     27 C24        -1.1282   -2.4871    0.0000 C.ar      1 <0>        0.00000
     28 H1          1.6877    0.7461    0.0000 H         1 <0>        0.00000
     29 H2          1.6877    0.7461    0.0000 H         1 <0>        0.00000
     30 H3          2.4022    0.3336    0.0000 H         1 <0>        0.00000
     31 H4          2.4022    0.3336    0.0000 H         1 <0>        0.00000
     32 H5          2.4022   -0.4914    0.0000 H         1 <0>        0.00000
     33 H6          2.4022   -0.4914    0.0000 H         1 <0>        0.00000
     34 H7          1.6877   -0.9039    0.0000 H         1 <0>        0.00000
     35 H8          1.6877   -0.9039    0.0000 H         1 <0>        0.00000
     36 H9         -1.1282    2.3293    0.0000 H         1 <0>        0.00000
     37 H10        -0.5762    2.9424    0.0000 H         1 <0>        0.00000
     38 H11         0.2308    2.7709    0.0000 H         1 <0>        0.00000
     39 H12         0.4857    1.9863    0.0000 H         1 <0>        0.00000
     40 H13        -2.7713   -0.0789    0.0000 H         1 <0>        0.00000
     41 H14        -2.3588    0.6356    0.0000 H         1 <0>        0.00000
     42 H15        -1.5338    0.6356    0.0000 H         1 <0>        0.00000
     43 H16        -1.5338   -0.7934    0.0000 H         1 <0>        0.00000
     44 H17        -2.3588   -0.7934    0.0000 H         1 <0>        0.00000
     45 H18         0.4857   -2.1441    0.0000 H         1 <0>        0.00000
     46 H19         0.2308   -2.9287    0.0000 H         1 <0>        0.00000
     47 H20        -0.5762   -3.1002    0.0000 H         1 <0>        0.00000
     48 H21        -1.1282   -2.4871    0.0000 H         1 <0>        0.00000
@<TRIPOS>BOND
     1    1    2 1
     2    1    6 1
     3    1    7 2
     4    2    3 1
     5    2    9 2
     6    3    4 1
     7    4    5 1
     8    5    6 1
     9    7    8 1
    10    7   23 1
    11    8    9 1
    12    8   19 1
    13    9   15 1
    14   10   11 ar
    15   10   15 ar
    16   11   12 ar
    17   12   13 ar
    18   13   14 ar
    19   14   15 ar
    20   16   17 ar
    21   16   21 ar
    22   17   18 ar
    23   18   19 ar
    24   19   20 ar
    25   20   21 ar
    26   22   23 ar
    27   22   27 ar
    28   23   24 ar
    29   24   25 ar
    30   25   26 ar
    31   26   27 ar
    32    3   28 1
    33    3   29 1
    34    4   30 1
    35    4   31 1
    36    5   32 1
    37    5   33 1
    38    6   34 1
    39    6   35 1
    40   11   36 1
    41   12   37 1
    42   13   38 1
    43   14   39 1
    44   16   40 1
    45   17   41 1
    46   18   42 1
    47   20   43 1
    48   21   44 1
    49   24   45 1
    50   25   46 1
    51   26   47 1
    52   27   48 1
@<TRIPOS>SUBSTRUCTURE
     1 <0>         1 GROUP 0 A     ****
@<TRIPOS>MOLECULE
249
   28    29     1     0     0
SMALL
NO_CHARGES

@<TRIPOS>ATOM
      1 I1          4.5079    1.9573    0.0000 I         1 <0>        0.00000
      2 O1          3.7464   -1.0026    0.0000 O.3       1 <0>        0.00000
      3 O2          2.1816   -2.4547    0.0000 O.3       1 <0>        0.00000
      4 O3          4.7969   -2.3685    0.0000 O.3       1 <0>        0.00000
      5 O4          1.6500    0.3073    0.0000 O.2       1 <0>        0.00000
      6 O5          3.0790    2.7823    0.0000 O.2       1 <0>        0.00000
      7 N1          3.0790    0.3073    0.0000 N.am      1 <0>        0.00000
      8 N2          2.3645    1.5448    0.0000 N.am      1 <0>        0.00000
      9 C1          2.6665   -1.7873    0.0000 C.3       1 <0>        0.00000
     10 C2          3.0790   -0.5177    0.0000 C.3       1 <0>        0.00000
     11 C3          2.4115   -1.0026    0.0000 C.3       1 <0>        0.00000
     12 C4          3.4915   -1.7873    0.0000 C.3       1 <0>        0.00000
     13 C5          3.9764   -2.4547    0.0000 C.3       1 <0>        0.00000
     14 C6          2.3645    0.7198    0.0000 C.ar      1 <0>        0.00000
     15 C7          3.7935    0.7198    0.0000 C.ar      1 <0>        0.00000
     16 C8          3.7935    1.5448    0.0000 C.ar      1 <0>        0.00000
     17 C9          3.0790    1.9573    0.0000 C.ar      1 <0>        0.00000
     18 H1          2.1816   -2.4547    0.0000 H         1 <0>        0.00000
     19 H2          4.7969   -2.3685    0.0000 H         1 <0>        0.00000
     20 H3          2.3645    1.5448    0.0000 H         1 <0>        0.00000
     21 H4          2.6665   -1.7873    0.0000 H         1 <0>        0.00000
     22 H5          3.0790   -0.5177    0.0000 H         1 <0>        0.00000
     23 H6          2.4115   -1.0026    0.0000 H         1 <0>        0.00000
     24 H7          2.4115   -1.0026    0.0000 H         1 <0>        0.00000
     25 H8          3.4915   -1.7873    0.0000 H         1 <0>        0.00000
     26 H9          3.9764   -2.4547    0.0000 H         1 <0>        0.00000
     27 H10         3.9764   -2.4547    0.0000 H         1 <0>        0.00000
     28 H11         3.7935    0.7198    0.0000 H         1 <0>        0.00000
@<TRIPOS>BOND
     1    1   16 1
     2    2   10 1
     3    2   12 1
     4    3    9 1
     5    4   13 1
     6    5   14 2
     7    6   17 2
     8    7   10 1
     9    7   14 am
    10    7   15 1
    11    8   14 am
    12    8   17 am
    13    9   11 1
    14    9   12 1
    15   10   11 1
    16   12   13 1
    17   15   16 2
    18   16   17 1
    19    3   18 1
    20    4   19 1
    21    8   20 1
    22    9   21 1
    23   10   22 1
    24   11   23 1
    25   11   24 1
    26   12   25 1
    27   13   26 1
    28   13   27 1
    29   15   28 1
@<TRIPOS>SUBSTRUCTURE
     1 <0>         1 GROUP 0 A     ****
@<TRIPOS>MOLECULE
MiniDrugBank_164
   46    49     1     0     0
SMALL
NO_CHARGES

@<TRIPOS>ATOM
      1 O1          7.7254    1.5548    0.0000 O.3       1 <0>        0.00000
      2 O2          2.3626   -1.9994    0.0000 O.3       1 <0>        0.00000
      3 C1          6.8116    0.5185    0.0000 C.3       1 <0>        0.00000
      4 C2          6.8116   -0.3064    0.0000 C.3       1 <0>        0.00000
      5 C3          6.0971   -0.7188    0.0000 C.3       1 <0>        0.00000
      6 C4          7.5921    0.7699    0.0000 C.3       1 <0>        0.00000
      7 C5          6.0971    0.9310    0.0000 C.3       1 <0>        0.00000
      8 C6          7.5921   -0.5577    0.0000 C.3       1 <0>        0.00000
      9 C7          5.3827    0.5185    0.0000 C.3       1 <0>        0.00000
     10 C8          8.0734    0.1061    0.0000 C.3       1 <0>        0.00000
     11 C9          6.1102   -1.5781    0.0000 C.3       1 <0>        0.00000
     12 C10         6.8116    1.3434    0.0000 C.3       1 <0>        0.00000
     13 C11         4.6321   -0.7245    0.0000 C.ar      1 <0>        0.00000
     14 C12         5.3696   -2.0134    0.0000 C.3       1 <0>        0.00000
     15 C13         4.6255   -1.5838    0.0000 C.ar      1 <0>        0.00000
     16 C14         8.2602    0.9263    0.0000 C.1       1 <0>        0.00000
     17 C15         3.8674   -0.2592    0.0000 C.ar      1 <0>        0.00000
     18 C16         3.8538   -2.0372    0.0000 C.ar      1 <0>        0.00000
     19 C17         3.0855   -0.6947    0.0000 C.ar      1 <0>        0.00000
     20 C18         3.0785   -1.5898    0.0000 C.ar      1 <0>        0.00000
     21 C19         9.0774    1.0528    0.0000 C.1       1 <0>        0.00000
     22 H1          6.0759    0.0864    0.0000 H         1 <0>        0.00000
     23 C20         5.3827   -0.3064    0.0000 C.3       1 <0>        0.00000
     24 H2          5.3762   -1.1312    0.0000 H         1 <0>        0.00000
     25 H3          6.8988   -1.1266    0.0000 H         1 <0>        0.00000
     26 H4          7.7254    1.5548    0.0000 H         1 <0>        0.00000
     27 H5          2.3626   -1.9994    0.0000 H         1 <0>        0.00000
     28 H6          6.0971    0.9310    0.0000 H         1 <0>        0.00000
     29 H7          6.0971    0.9310    0.0000 H         1 <0>        0.00000
     30 H8          7.5921   -0.5577    0.0000 H         1 <0>        0.00000
     31 H9          7.5921   -0.5577    0.0000 H         1 <0>        0.00000
     32 H10         5.3827    0.5185    0.0000 H         1 <0>        0.00000
     33 H11         5.3827    0.5185    0.0000 H         1 <0>        0.00000
     34 H12         8.0734    0.1061    0.0000 H         1 <0>        0.00000
     35 H13         8.0734    0.1061    0.0000 H         1 <0>        0.00000
     36 H14         6.1102   -1.5781    0.0000 H         1 <0>        0.00000
     37 H15         6.1102   -1.5781    0.0000 H         1 <0>        0.00000
     38 H16         6.8116    1.3434    0.0000 H         1 <0>        0.00000
     39 H17         6.8116    1.3434    0.0000 H         1 <0>        0.00000
     40 H18         6.8116    1.3434    0.0000 H         1 <0>        0.00000
     41 H19         5.3696   -2.0134    0.0000 H         1 <0>        0.00000
     42 H20         5.3696   -2.0134    0.0000 H         1 <0>        0.00000
     43 H21         3.8674   -0.2592    0.0000 H         1 <0>        0.00000
     44 H22         3.8538   -2.0372    0.0000 H         1 <0>        0.00000
     45 H23         3.0855   -0.6947    0.0000 H         1 <0>        0.00000
     46 H24         9.0774    1.0528    0.0000 H         1 <0>        0.00000
@<TRIPOS>BOND
     1    1    6 1
     2    2   20 1
     3    3    4 1
     4    3    6 1
     5    3    7 1
     6    3   12 1
     7    4    5 1
     8    4    8 1
     9    5   11 1
    10    5   22 1
    11    6   10 1
    12    6   16 1
    13    7    9 1
    14    8   10 1
    15   11   14 1
    16   13   15 ar
    17   13   17 ar
    18   14   15 1
    19   15   18 ar
    20   16   21 3
    21   17   19 ar
    22   18   20 ar
    23   19   20 ar
    24    5   23 1
    25    9   23 1
    26   13   23 1
    27   23   24 1
    28    4   25 1
    29    1   26 1
    30    2   27 1
    31    7   28 1
    32    7   29 1
    33    8   30 1
    34    8   31 1
    35    9   32 1
    36    9   33 1
    37   10   34 1
    38   10   35 1
    39   11   36 1
    40   11   37 1
    41   12   38 1
    42   12   39 1
    43   12   40 1
    44   14   41 1
    45   14   42 1
    46   17   43 1
    47   18   44 1
    48   19   45 1
    49   21   46 1
@<TRIPOS>SUBSTRUCTURE
     1 <0>         1 GROUP 0 A     ****
@<TRIPOS>MOLECULE
B14
   44    47     1     0     0
SMALL
NO_CHARGES

@<TRIPOS>ATOM
      1 C1         -2.3982   -0.3115    0.0000 C.ar      1 <0>        0.00000
      2 C2         -3.1990   -0.1133    0.0000 C.ar      1 <0>        0.00000
      3 C3         -3.4278    0.6793    0.0000 C.ar      1 <0>        0.00000
      4 C4         -2.8558    1.2738    0.0000 C.ar      1 <0>        0.00000
      5 C5         -2.0550    1.0756    0.0000 C.ar      1 <0>        0.00000
      6 C6         -1.4829    1.6701    0.0000 C.2       1 <0>        0.00000
      7 N1         -0.6821    1.4719    0.0000 N.2       1 <0>        0.00000
      8 C7         -0.4533    0.6793    0.0000 C.3       1 <0>        0.00000
      9 N2         -1.0253    0.0848    0.0000 N.pl3     1 <0>        0.00000
     10 C8         -1.8262    0.2830    0.0000 C.ar      1 <0>        0.00000
     11 F1         -3.0846    2.0664    0.0000 F         1 <0>        0.00000
     12 F2         -2.1694   -1.1041    0.0000 F         1 <0>        0.00000
     13 C9          0.1188    1.2738    0.0000 C.3       1 <0>        0.00000
     14 C10         0.9196    1.0756    0.0000 C.3       1 <0>        0.00000
     15 N3          1.1484    0.2830    0.0000 N.am      1 <0>        0.00000
     16 C11         0.5764   -0.3115    0.0000 C.3       1 <0>        0.00000
     17 C12        -0.2245   -0.1133    0.0000 C.3       1 <0>        0.00000
     18 C13         1.9493    0.0848    0.0000 C.2       1 <0>        0.00000
     19 O1          2.5213    0.6793    0.0000 O.2       1 <0>        0.00000
     20 N4         -1.7117    2.4627    0.0000 N.pl3     1 <0>        0.00000
     21 C14         2.1781   -0.7078    0.0000 C.ar      1 <0>        0.00000
     22 C15         2.9789   -0.9060    0.0000 C.ar      1 <0>        0.00000
     23 N5          3.2078   -1.6986    0.0000 N.ar      1 <0>        0.00000
     24 C16         2.6357   -2.2931    0.0000 C.ar      1 <0>        0.00000
     25 C17         1.8349   -2.0949    0.0000 C.ar      1 <0>        0.00000
     26 C18         1.6061   -1.3023    0.0000 C.ar      1 <0>        0.00000
     27 C19         2.8645   -3.0857    0.0000 C.1       1 <0>        0.00000
     28 N6          3.0933   -3.8783    0.0000 N.1       1 <0>        0.00000
     29 H1         -3.1990   -0.1133    0.0000 H         1 <0>        0.00000
     30 H2         -3.4278    0.6793    0.0000 H         1 <0>        0.00000
     31 H3         -1.0253    0.0848    0.0000 H         1 <0>        0.00000
     32 H4          0.1188    1.2738    0.0000 H         1 <0>        0.00000
     33 H5          0.1188    1.2738    0.0000 H         1 <0>        0.00000
     34 H6          0.9196    1.0756    0.0000 H         1 <0>        0.00000
     35 H7          0.9196    1.0756    0.0000 H         1 <0>        0.00000
     36 H8          0.5764   -0.3115    0.0000 H         1 <0>        0.00000
     37 H9          0.5764   -0.3115    0.0000 H         1 <0>        0.00000
     38 H10        -0.2245   -0.1133    0.0000 H         1 <0>        0.00000
     39 H11        -0.2245   -0.1133    0.0000 H         1 <0>        0.00000
     40 H12        -1.7117    2.4627    0.0000 H         1 <0>        0.00000
     41 H13        -1.7117    2.4627    0.0000 H         1 <0>        0.00000
     42 H14         2.9789   -0.9060    0.0000 H         1 <0>        0.00000
     43 H15         1.8349   -2.0949    0.0000 H         1 <0>        0.00000
     44 H16         1.6061   -1.3023    0.0000 H         1 <0>        0.00000
@<TRIPOS>BOND
     1    1    2 ar
     2    1   10 ar
     3    1   12 1
     4    2    3 ar
     5    3    4 ar
     6    4    5 ar
     7    4   11 1
     8    5    6 1
     9    5   10 ar
    10    6    7 2
    11    6   20 1
    12    7    8 1
    13    8    9 1
    14    8   13 1
    15    8   17 1
    16    9   10 1
    17   13   14 1
    18   14   15 1
    19   15   16 1
    20   15   18 am
    21   16   17 1
    22   18   19 2
    23   18   21 1
    24   21   22 ar
    25   21   26 ar
    26   22   23 ar
    27   23   24 ar
    28   24   25 ar
    29   24   27 1
    30   25   26 ar
    31   27   28 3
    32    2   29 1
    33    3   30 1
    34    9   31 1
    35   13   32 1
    36   13   33 1
    37   14   34 1
    38   14   35 1
    39   16   36 1
    40   16   37 1
    41   17   38 1
    42   17   39 1
    43   20   40 1
    44   20   41 1
    45   22   42 1
    46   25   43 1
    47   26   44 1
@<TRIPOS>SUBSTRUCTURE
     1 <0>         1 GROUP 0 A     ****
@<TRIPOS>MOLECULE
MiniDrugBank_166
   14    13     1     0     0
SMALL
NO_CHARGES

@<TRIPOS>ATOM
      1 C1          2.4750   -1.4289    0.0000 C.3       1 <0>        0.00000
      2 O1          1.6500   -1.4289    0.0000 O.3       1 <0>        0.00000
      3 P1          1.2375   -0.7145    0.0000 P.3       1 <0>        0.00000
      4 O2          1.9520   -0.3020    0.0000 O.3       1 <0>        0.00000
      5 S1          0.5230   -1.1270    0.0000 S.2       1 <0>        0.00000
      6 O3          0.8250    0.0000    0.0000 O.3       1 <0>        0.00000
      7 C2          0.0000    0.0000    0.0000 C.3       1 <0>        0.00000
      8 H1          2.4750   -1.4289    0.0000 H         1 <0>        0.00000
      9 H2          2.4750   -1.4289    0.0000 H         1 <0>        0.00000
     10 H3          2.4750   -1.4289    0.0000 H         1 <0>        0.00000
     11 H4          1.9520   -0.3020    0.0000 H         1 <0>        0.00000
     12 H5          0.0000    0.0000    0.0000 H         1 <0>        0.00000
     13 H6          0.0000    0.0000    0.0000 H         1 <0>        0.00000
     14 H7          0.0000    0.0000    0.0000 H         1 <0>        0.00000
@<TRIPOS>BOND
     1    1    2 1
     2    2    3 1
     3    3    4 1
     4    3    5 2
     5    3    6 1
     6    6    7 1
     7    1    8 1
     8    1    9 1
     9    1   10 1
    10    4   11 1
    11    7   12 1
    12    7   13 1
    13    7   14 1
@<TRIPOS>SUBSTRUCTURE
     1 <0>         1 GROUP 0 A     ****
@<TRIPOS>MOLECULE
1010
   28    28     1     0     0
SMALL
NO_CHARGES

@<TRIPOS>ATOM
      1 O1          1.6500   -1.6005    0.0000 O.3       1 <0>        0.00000
      2 N1          3.0791    0.8745    0.0000 N.4       1 <0>        0.00000
      3 C1          3.0791    1.6995    0.0000 C.3       1 <0>        0.00000
      4 C2          3.0791    0.0495    0.0000 C.ar      1 <0>        0.00000
      5 C3          3.9041    0.8745    0.0000 C.3       1 <0>        0.00000
      6 C4          2.2540    0.8745    0.0000 C.3       1 <0>        0.00000
      7 C5          3.7935    2.1120    0.0000 C.3       1 <0>        0.00000
      8 C6          2.3645   -0.3630    0.0000 C.ar      1 <0>        0.00000
      9 C7          3.7935   -0.3630    0.0000 C.ar      1 <0>        0.00000
     10 C8          2.3645   -1.1880    0.0000 C.ar      1 <0>        0.00000
     11 C9          3.7935   -1.1880    0.0000 C.ar      1 <0>        0.00000
     12 C10         3.0791   -1.6005    0.0000 C.ar      1 <0>        0.00000
     13 H1          1.6500   -1.6005    0.0000 H         1 <0>        0.00000
     14 H2          3.0791    1.6995    0.0000 H         1 <0>        0.00000
     15 H3          3.0791    1.6995    0.0000 H         1 <0>        0.00000
     16 H4          3.9041    0.8745    0.0000 H         1 <0>        0.00000
     17 H5          3.9041    0.8745    0.0000 H         1 <0>        0.00000
     18 H6          3.9041    0.8745    0.0000 H         1 <0>        0.00000
     19 H7          2.2540    0.8745    0.0000 H         1 <0>        0.00000
     20 H8          2.2540    0.8745    0.0000 H         1 <0>        0.00000
     21 H9          2.2540    0.8745    0.0000 H         1 <0>        0.00000
     22 H10         3.7935    2.1120    0.0000 H         1 <0>        0.00000
     23 H11         3.7935    2.1120    0.0000 H         1 <0>        0.00000
     24 H12         3.7935    2.1120    0.0000 H         1 <0>        0.00000
     25 H13         2.3645   -0.3630    0.0000 H         1 <0>        0.00000
     26 H14         3.7935   -0.3630    0.0000 H         1 <0>        0.00000
     27 H15         3.7935   -1.1880    0.0000 H         1 <0>        0.00000
     28 H16         3.0791   -1.6005    0.0000 H         1 <0>        0.00000
@<TRIPOS>BOND
     1    1   10 1
     2    2    3 1
     3    2    4 1
     4    2    5 1
     5    2    6 1
     6    3    7 1
     7    4    8 ar
     8    4    9 ar
     9    8   10 ar
    10    9   11 ar
    11   10   12 ar
    12   11   12 ar
    13    1   13 1
    14    3   14 1
    15    3   15 1
    16    5   16 1
    17    5   17 1
    18    5   18 1
    19    6   19 1
    20    6   20 1
    21    6   21 1
    22    7   22 1
    23    7   23 1
    24    7   24 1
    25    8   25 1
    26    9   26 1
    27   11   27 1
    28   12   28 1
@<TRIPOS>SUBSTRUCTURE
     1 <0>         1 GROUP 0 A     ****
@<TRIPOS>MOLECULE
3516
   14    14     1     0     0
SMALL
NO_CHARGES

@<TRIPOS>ATOM
      1 O1          2.8075   -0.9034    0.0000 O.2       1 <0>        0.00000
      2 O2          5.6655   -0.9034    0.0000 O.2       1 <0>        0.00000
      3 N1          4.2365   -0.9034    0.0000 N.am      1 <0>        0.00000
      4 N2          4.9509    0.3341    0.0000 N.am      1 <0>        0.00000
      5 C1          3.5220    0.3341    0.0000 C.ar      1 <0>        0.00000
      6 C2          3.5220   -0.4909    0.0000 C.ar      1 <0>        0.00000
      7 C3          4.2365    0.7466    0.0000 C.ar      1 <0>        0.00000
      8 C4          4.9509   -0.4909    0.0000 C.ar      1 <0>        0.00000
      9 C5          2.8075    0.7466    0.0000 C.1       1 <0>        0.00000
     10 C6          2.0930    1.1592    0.0000 C.1       1 <0>        0.00000
     11 H1          4.2365   -0.9034    0.0000 H         1 <0>        0.00000
     12 H2          4.9509    0.3341    0.0000 H         1 <0>        0.00000
     13 H3          4.2365    0.7466    0.0000 H         1 <0>        0.00000
     14 H4          2.0930    1.1592    0.0000 H         1 <0>        0.00000
@<TRIPOS>BOND
     1    1    6 2
     2    2    8 2
     3    3    6 am
     4    3    8 am
     5    4    7 1
     6    4    8 am
     7    5    6 1
     8    5    7 2
     9    5    9 1
    10    9   10 3
    11    3   11 1
    12    4   12 1
    13    7   13 1
    14   10   14 1
@<TRIPOS>SUBSTRUCTURE
     1 <0>         1 GROUP 0 A     ****
@<TRIPOS>MOLECULE
1031
   25    25     1     0     0
SMALL
NO_CHARGES

@<TRIPOS>ATOM
      1 O1          3.1433    0.6035    0.0000 O.3       1 <0>        0.00000
      2 O2          4.3808   -0.1110    0.0000 O.2       1 <0>        0.00000
      3 N1          4.3808    1.3180    0.0000 N.am      1 <0>        0.00000
      4 C1          2.7308   -0.1110    0.0000 C.3       1 <0>        0.00000
      5 C2          2.0163   -0.5235    0.0000 C.3       1 <0>        0.00000
      6 C3          3.4453   -0.5235    0.0000 C.3       1 <0>        0.00000
      7 C4          2.0163   -1.3485    0.0000 C.3       1 <0>        0.00000
      8 C5          3.4453   -1.3485    0.0000 C.3       1 <0>        0.00000
      9 C6          2.7308   -1.7610    0.0000 C.3       1 <0>        0.00000
     10 C7          2.3183    0.6035    0.0000 C.1       1 <0>        0.00000
     11 C8          3.9683    0.6035    0.0000 C.2       1 <0>        0.00000
     12 C9          1.9058    1.3180    0.0000 C.1       1 <0>        0.00000
     13 H1          4.3808    1.3180    0.0000 H         1 <0>        0.00000
     14 H2          4.3808    1.3180    0.0000 H         1 <0>        0.00000
     15 H3          2.0163   -0.5235    0.0000 H         1 <0>        0.00000
     16 H4          2.0163   -0.5235    0.0000 H         1 <0>        0.00000
     17 H5          3.4453   -0.5235    0.0000 H         1 <0>        0.00000
     18 H6          3.4453   -0.5235    0.0000 H         1 <0>        0.00000
     19 H7          2.0163   -1.3485    0.0000 H         1 <0>        0.00000
     20 H8          2.0163   -1.3485    0.0000 H         1 <0>        0.00000
     21 H9          3.4453   -1.3485    0.0000 H         1 <0>        0.00000
     22 H10         3.4453   -1.3485    0.0000 H         1 <0>        0.00000
     23 H11         2.7308   -1.7610    0.0000 H         1 <0>        0.00000
     24 H12         2.7308   -1.7610    0.0000 H         1 <0>        0.00000
     25 H13         1.9058    1.3180    0.0000 H         1 <0>        0.00000
@<TRIPOS>BOND
     1    1    4 1
     2    1   11 1
     3    2   11 2
     4    3   11 am
     5    4    5 1
     6    4    6 1
     7    4   10 1
     8    5    7 1
     9    6    8 1
    10    7    9 1
    11    8    9 1
    12   10   12 3
    13    3   13 1
    14    3   14 1
    15    5   15 1
    16    5   16 1
    17    6   17 1
    18    6   18 1
    19    7   19 1
    20    7   20 1
    21    8   21 1
    22    8   22 1
    23    9   23 1
    24    9   24 1
    25   12   25 1
@<TRIPOS>SUBSTRUCTURE
     1 <0>         1 GROUP 0 A     ****
@<TRIPOS>MOLECULE
1034
   33    33     1     0     0
SMALL
NO_CHARGES

@<TRIPOS>ATOM
      1 O1          3.9345    0.9760    0.0000 O.3       1 <0>        0.00000
      2 O2          5.0615   -0.9760    0.0000 O.2       1 <0>        0.00000
      3 O3          2.8075   -0.9760    0.0000 O.2       1 <0>        0.00000
      4 N1          2.0930    0.2615    0.0000 N.am      1 <0>        0.00000
      5 C1          4.3470    0.2615    0.0000 C.3       1 <0>        0.00000
      6 C2          3.5220    0.2615    0.0000 C.3       1 <0>        0.00000
      7 C3          5.0615   -0.1510    0.0000 C.2       1 <0>        0.00000
      8 C4          5.7760    0.2615    0.0000 C.3       1 <0>        0.00000
      9 C5          2.8075   -0.1510    0.0000 C.2       1 <0>        0.00000
     10 C6          6.4905   -0.1510    0.0000 C.3       1 <0>        0.00000
     11 C7          7.2050    0.2615    0.0000 C.2       1 <0>        0.00000
     12 C8          7.9194   -0.1510    0.0000 C.2       1 <0>        0.00000
     13 C9          8.6339    0.2615    0.0000 C.3       1 <0>        0.00000
     14 C10         9.3484   -0.1510    0.0000 C.2       1 <0>        0.00000
     15 C11        10.0629    0.2615    0.0000 C.2       1 <0>        0.00000
     16 C12        10.7774   -0.1510    0.0000 C.3       1 <0>        0.00000
     17 H1          2.0930    0.2615    0.0000 H         1 <0>        0.00000
     18 H2          2.0930    0.2615    0.0000 H         1 <0>        0.00000
     19 H3          4.3470    0.2615    0.0000 H         1 <0>        0.00000
     20 H4          3.5220    0.2615    0.0000 H         1 <0>        0.00000
     21 H5          5.7760    0.2615    0.0000 H         1 <0>        0.00000
     22 H6          5.7760    0.2615    0.0000 H         1 <0>        0.00000
     23 H7          6.4905   -0.1510    0.0000 H         1 <0>        0.00000
     24 H8          6.4905   -0.1510    0.0000 H         1 <0>        0.00000
     25 H9          7.2050    0.2615    0.0000 H         1 <0>        0.00000
     26 H10         7.9194   -0.1510    0.0000 H         1 <0>        0.00000
     27 H11         8.6339    0.2615    0.0000 H         1 <0>        0.00000
     28 H12         8.6339    0.2615    0.0000 H         1 <0>        0.00000
     29 H13         9.3484   -0.1510    0.0000 H         1 <0>        0.00000
     30 H14        10.0629    0.2615    0.0000 H         1 <0>        0.00000
     31 H15        10.7774   -0.1510    0.0000 H         1 <0>        0.00000
     32 H16        10.7774   -0.1510    0.0000 H         1 <0>        0.00000
     33 H17        10.7774   -0.1510    0.0000 H         1 <0>        0.00000
@<TRIPOS>BOND
     1    1    5 1
     2    1    6 1
     3    2    7 2
     4    3    9 2
     5    4    9 am
     6    5    6 1
     7    5    7 1
     8    6    9 1
     9    7    8 1
    10    8   10 1
    11   10   11 1
    12   11   12 2
    13   12   13 1
    14   13   14 1
    15   14   15 2
    16   15   16 1
    17    4   17 1
    18    4   18 1
    19    5   19 1
    20    6   20 1
    21    8   21 1
    22    8   22 1
    23   10   23 1
    24   10   24 1
    25   11   25 1
    26   12   26 1
    27   13   27 1
    28   13   28 1
    29   14   29 1
    30   15   30 1
    31   16   31 1
    32   16   32 1
    33   16   33 1
@<TRIPOS>SUBSTRUCTURE
     1 <0>         1 GROUP 0 A     ****
@<TRIPOS>MOLECULE
MiniDrugBank_171
   31    31     1     0     0
SMALL
NO_CHARGES

@<TRIPOS>ATOM
      1 C1         -1.7813   -1.0812    0.0000 C.ar      1 <0>        0.00000
      2 C2         -2.4957   -1.4937    0.0000 C.ar      1 <0>        0.00000
      3 C3         -2.4957   -2.3188    0.0000 C.ar      1 <0>        0.00000
      4 C4         -1.7813   -2.7313    0.0000 C.ar      1 <0>        0.00000
      5 C5         -1.0668   -2.3188    0.0000 C.ar      1 <0>        0.00000
      6 C6         -1.0668   -1.4937    0.0000 C.ar      1 <0>        0.00000
      7 C7         -0.3523   -1.0812    0.0000 C.3       1 <0>        0.00000
      8 C8          1.0766   -1.0812    0.0000 C.3       1 <0>        0.00000
      9 C9          0.3622   -1.4937    0.0000 C.3       1 <0>        0.00000
     10 C10        -0.3523   -2.7312    0.0000 C.3       1 <0>        0.00000
     11 C11         1.0766   -2.7312    0.0000 C.3       1 <0>        0.00000
     12 C12         1.7911   -2.3187    0.0000 C.1       1 <0>        0.00000
     13 C13         2.5056   -1.9062    0.0000 C.1       1 <0>        0.00000
     14 N1          0.3622   -2.3187    0.0000 N.3       1 <0>        0.00000
     15 H1         -1.7813   -1.0812    0.0000 H         1 <0>        0.00000
     16 H2         -2.4957   -1.4937    0.0000 H         1 <0>        0.00000
     17 H3         -2.4957   -2.3188    0.0000 H         1 <0>        0.00000
     18 H4         -1.7813   -2.7313    0.0000 H         1 <0>        0.00000
     19 H5         -1.0668   -2.3188    0.0000 H         1 <0>        0.00000
     20 H6         -0.3523   -1.0812    0.0000 H         1 <0>        0.00000
     21 H7         -0.3523   -1.0812    0.0000 H         1 <0>        0.00000
     22 H8          1.0766   -1.0812    0.0000 H         1 <0>        0.00000
     23 H9          1.0766   -1.0812    0.0000 H         1 <0>        0.00000
     24 H10         1.0766   -1.0812    0.0000 H         1 <0>        0.00000
     25 H11         0.3622   -1.4937    0.0000 H         1 <0>        0.00000
     26 H12        -0.3523   -2.7312    0.0000 H         1 <0>        0.00000
     27 H13        -0.3523   -2.7312    0.0000 H         1 <0>        0.00000
     28 H14        -0.3523   -2.7312    0.0000 H         1 <0>        0.00000
     29 H15         1.0766   -2.7312    0.0000 H         1 <0>        0.00000
     30 H16         1.0766   -2.7312    0.0000 H         1 <0>        0.00000
     31 H17         2.5056   -1.9062    0.0000 H         1 <0>        0.00000
@<TRIPOS>BOND
     1    1    2 ar
     2    1    6 ar
     3    2    3 ar
     4    3    4 ar
     5    4    5 ar
     6    5    6 ar
     7    6    7 1
     8    7    9 1
     9    8    9 1
    10   10   14 1
    11   11   14 1
    12   11   12 1
    13   12   13 3
    14    9   14 1
    15    1   15 1
    16    2   16 1
    17    3   17 1
    18    4   18 1
    19    5   19 1
    20    7   20 1
    21    7   21 1
    22    8   22 1
    23    8   23 1
    24    8   24 1
    25    9   25 1
    26   10   26 1
    27   10   27 1
    28   10   28 1
    29   11   29 1
    30   11   30 1
    31   13   31 1
@<TRIPOS>SUBSTRUCTURE
     1 <0>         1 GROUP 0 A     ****
@<TRIPOS>MOLECULE
MiniDrugBank_172
   50    51     1     0     0
SMALL
NO_CHARGES

@<TRIPOS>ATOM
      1 C1          0.8250    1.6500    0.0000 C.3       1 <0>        0.00000
      2 C2          0.0000    1.6500    0.0000 C.3       1 <0>        0.00000
      3 C3         -0.8250    1.6500    0.0000 C.3       1 <0>        0.00000
      4 O1          0.0000    0.8250    0.0000 O.3       1 <0>        0.00000
      5 N1          0.7145    0.4125    0.0000 N.2       1 <0>        0.00000
      6 C4          0.7145   -0.4125    0.0000 C.2       1 <0>        0.00000
      7 C5          1.4289   -0.8250    0.0000 C.2       1 <0>        0.00000
      8 O2          2.1434   -0.4125    0.0000 O.2       1 <0>        0.00000
      9 N2          1.4289   -1.6500    0.0000 N.am      1 <0>        0.00000
     10 C6          2.1434   -2.0625    0.0000 C.3       1 <0>        0.00000
     11 C7          2.8579   -1.6500    0.0000 C.2       1 <0>        0.00000
     12 O3          3.5724   -2.0625    0.0000 O.2       1 <0>        0.00000
     13 C8          2.1434   -2.8875    0.0000 C.3       1 <0>        0.00000
     14 S1          2.8579   -3.3000    0.0000 S.3       1 <0>        0.00000
     15 C9          2.8579   -4.1250    0.0000 C.3       1 <0>        0.00000
     16 C10         2.1434   -4.5375    0.0000 C.2       1 <0>        0.00000
     17 C11         2.1434   -5.3625    0.0000 C.2       1 <0>        0.00000
     18 C12         1.4289   -4.1250    0.0000 C.2       1 <0>        0.00000
     19 N3          1.4289   -3.3000    0.0000 N.2       1 <0>        0.00000
     20 C13         0.7145   -4.5375    0.0000 C.2       1 <0>        0.00000
     21 O4          0.0000   -4.1250    0.0000 O.3       1 <0>        0.00000
     22 O5          0.7145   -5.3625    0.0000 O.2       1 <0>        0.00000
     23 C14         0.0000   -0.8250    0.0000 C.ar      1 <0>        0.00000
     24 C15        -0.0862   -1.6455    0.0000 C.ar      1 <0>        0.00000
     25 S2         -0.8932   -1.8170    0.0000 S.3       1 <0>        0.00000
     26 C16        -1.3057   -1.1025    0.0000 C.ar      1 <0>        0.00000
     27 N4         -2.1262   -1.0163    0.0000 N.pl3     1 <0>        0.00000
     28 N5         -0.7537   -0.4894    0.0000 N.ar      1 <0>        0.00000
     29 C17         0.0000    2.4750    0.0000 C.2       1 <0>        0.00000
     30 O6         -0.7145    2.8875    0.0000 O.3       1 <0>        0.00000
     31 O7          0.7145    2.8875    0.0000 O.2       1 <0>        0.00000
     32 H1          0.8250    1.6500    0.0000 H         1 <0>        0.00000
     33 H2          0.8250    1.6500    0.0000 H         1 <0>        0.00000
     34 H3          0.8250    1.6500    0.0000 H         1 <0>        0.00000
     35 H4         -0.8250    1.6500    0.0000 H         1 <0>        0.00000
     36 H5         -0.8250    1.6500    0.0000 H         1 <0>        0.00000
     37 H6         -0.8250    1.6500    0.0000 H         1 <0>        0.00000
     38 H7          1.4289   -1.6500    0.0000 H         1 <0>        0.00000
     39 H8          2.1434   -2.0625    0.0000 H         1 <0>        0.00000
     40 H9          2.8579   -1.6500    0.0000 H         1 <0>        0.00000
     41 H10         2.1434   -2.8875    0.0000 H         1 <0>        0.00000
     42 H11         2.8579   -4.1250    0.0000 H         1 <0>        0.00000
     43 H12         2.8579   -4.1250    0.0000 H         1 <0>        0.00000
     44 H13         2.1434   -5.3625    0.0000 H         1 <0>        0.00000
     45 H14         2.1434   -5.3625    0.0000 H         1 <0>        0.00000
     46 H15         0.0000   -4.1250    0.0000 H         1 <0>        0.00000
     47 H16        -0.0862   -1.6455    0.0000 H         1 <0>        0.00000
     48 H17        -2.1262   -1.0163    0.0000 H         1 <0>        0.00000
     49 H18        -2.1262   -1.0163    0.0000 H         1 <0>        0.00000
     50 H19        -0.7145    2.8875    0.0000 H         1 <0>        0.00000
@<TRIPOS>BOND
     1    1    2 1
     2    2    3 1
     3    2    4 1
     4    4    5 1
     5    5    6 2
     6    6    7 1
     7    7    8 2
     8    7    9 am
     9    9   10 1
    10   10   11 1
    11   11   12 2
    12   10   13 1
    13   13   14 1
    14   14   15 1
    15   15   16 1
    16   16   17 2
    17   16   18 1
    18   18   19 2
    19   13   19 1
    20   18   20 1
    21   20   21 1
    22   20   22 2
    23    6   23 1
    24   23   24 2
    25   24   25 1
    26   25   26 1
    27   26   27 1
    28   26   28 2
    29   23   28 1
    30    2   29 1
    31   29   30 1
    32   29   31 2
    33    1   32 1
    34    1   33 1
    35    1   34 1
    36    3   35 1
    37    3   36 1
    38    3   37 1
    39    9   38 1
    40   10   39 1
    41   11   40 1
    42   13   41 1
    43   15   42 1
    44   15   43 1
    45   17   44 1
    46   17   45 1
    47   21   46 1
    48   24   47 1
    49   27   48 1
    50   27   49 1
    51   30   50 1
@<TRIPOS>SUBSTRUCTURE
     1 <0>         1 GROUP 0 A     ****
@<TRIPOS>MOLECULE
BOS
   32    33     1     0     0
SMALL
NO_CHARGES

@<TRIPOS>ATOM
      1 N1         -0.0372    3.8255    0.0000 N.pl3     1 <0>        0.00000
      2 S1         -0.0372    3.0005    0.0000 S.o2      1 <0>        0.00000
      3 O1         -0.8622    3.0005    0.0000 O.2       1 <0>        0.00000
      4 O2          0.7878    3.0005    0.0000 O.2       1 <0>        0.00000
      5 C1         -0.0372    2.1755    0.0000 C.ar      1 <0>        0.00000
      6 C2          0.6772    1.7630    0.0000 C.ar      1 <0>        0.00000
      7 C3          0.6772    0.9380    0.0000 C.ar      1 <0>        0.00000
      8 C4         -0.0372    0.5255    0.0000 C.ar      1 <0>        0.00000
      9 C5         -0.7517    0.9380    0.0000 C.ar      1 <0>        0.00000
     10 C6         -0.7517    1.7630    0.0000 C.ar      1 <0>        0.00000
     11 N2         -0.0372   -0.2995    0.0000 N.am      1 <0>        0.00000
     12 C7          0.6772   -0.7120    0.0000 C.2       1 <0>        0.00000
     13 O3          1.3917   -0.2995    0.0000 O.2       1 <0>        0.00000
     14 C8          0.6772   -1.5370    0.0000 C.ar      1 <0>        0.00000
     15 C9          1.3917   -1.9495    0.0000 C.ar      1 <0>        0.00000
     16 C10         1.3917   -2.7745    0.0000 C.ar      1 <0>        0.00000
     17 C11         0.6772   -3.1870    0.0000 C.ar      1 <0>        0.00000
     18 C12        -0.0372   -2.7745    0.0000 C.ar      1 <0>        0.00000
     19 C13        -0.0372   -1.9495    0.0000 C.ar      1 <0>        0.00000
     20 S2         -0.7517   -1.5370    0.0000 S.3       1 <0>        0.00000
     21 H1         -0.0372    3.8255    0.0000 H         1 <0>        0.00000
     22 H2         -0.0372    3.8255    0.0000 H         1 <0>        0.00000
     23 H3          0.6772    1.7630    0.0000 H         1 <0>        0.00000
     24 H4          0.6772    0.9380    0.0000 H         1 <0>        0.00000
     25 H5         -0.7517    0.9380    0.0000 H         1 <0>        0.00000
     26 H6         -0.7517    1.7630    0.0000 H         1 <0>        0.00000
     27 H7         -0.0372   -0.2995    0.0000 H         1 <0>        0.00000
     28 H8          1.3917   -1.9495    0.0000 H         1 <0>        0.00000
     29 H9          1.3917   -2.7745    0.0000 H         1 <0>        0.00000
     30 H10         0.6772   -3.1870    0.0000 H         1 <0>        0.00000
     31 H11        -0.0372   -2.7745    0.0000 H         1 <0>        0.00000
     32 H12        -0.7517   -1.5370    0.0000 H         1 <0>        0.00000
@<TRIPOS>BOND
     1    1    2 1
     2    2    3 2
     3    2    4 2
     4    2    5 1
     5    5    6 ar
     6    5   10 ar
     7    6    7 ar
     8    7    8 ar
     9    8    9 ar
    10    8   11 1
    11    9   10 ar
    12   11   12 am
    13   12   13 2
    14   12   14 1
    15   14   15 ar
    16   14   19 ar
    17   15   16 ar
    18   16   17 ar
    19   17   18 ar
    20   18   19 ar
    21   19   20 1
    22    1   21 1
    23    1   22 1
    24    6   23 1
    25    7   24 1
    26    9   25 1
    27   10   26 1
    28   11   27 1
    29   15   28 1
    30   16   29 1
    31   17   30 1
    32   18   31 1
    33   20   32 1
@<TRIPOS>SUBSTRUCTURE
     1 <0>         1 GROUP 0 A     ****
@<TRIPOS>MOLECULE
CB3
   58    60     1     0     0
SMALL
NO_CHARGES

@<TRIPOS>ATOM
      1 N1         -4.5072   -1.5584    0.0000 N.pl3     1 <0>        0.00000
      2 C1         -5.2217   -1.1459    0.0000 C.ar      1 <0>        0.00000
      3 N2         -5.9361   -1.5584    0.0000 N.pl3     1 <0>        0.00000
      4 N3         -5.2217   -0.3209    0.0000 N.ar      1 <0>        0.00000
      5 C2         -4.5072    0.0916    0.0000 C.ar      1 <0>        0.00000
      6 O1         -4.5072    0.9166    0.0000 O.2       1 <0>        0.00000
      7 C3         -3.7927   -0.3209    0.0000 C.ar      1 <0>        0.00000
      8 C4         -3.0782    0.0916    0.0000 C.ar      1 <0>        0.00000
      9 C5         -2.3638   -0.3209    0.0000 C.ar      1 <0>        0.00000
     10 C6         -2.3638   -1.1459    0.0000 C.ar      1 <0>        0.00000
     11 C7         -3.0782   -1.5584    0.0000 C.ar      1 <0>        0.00000
     12 C8         -3.7927   -1.1459    0.0000 C.ar      1 <0>        0.00000
     13 C9         -1.6493    0.0916    0.0000 C.3       1 <0>        0.00000
     14 N4         -0.9348   -0.3209    0.0000 N.pl3     1 <0>        0.00000
     15 C10         1.2086    0.9166    0.0000 C.ar      1 <0>        0.00000
     16 C11         1.2086    0.0916    0.0000 C.ar      1 <0>        0.00000
     17 C12         0.4941   -0.3209    0.0000 C.ar      1 <0>        0.00000
     18 C13        -0.2204    0.0916    0.0000 C.ar      1 <0>        0.00000
     19 C14        -0.2204    0.9166    0.0000 C.ar      1 <0>        0.00000
     20 C15         0.4941    1.3291    0.0000 C.ar      1 <0>        0.00000
     21 C16         1.9231    1.3291    0.0000 C.2       1 <0>        0.00000
     22 O2          1.9231    2.1541    0.0000 O.2       1 <0>        0.00000
     23 N5          2.6375    0.9166    0.0000 N.am      1 <0>        0.00000
     24 C17         3.3520    1.3291    0.0000 C.3       1 <0>        0.00000
     25 C18         4.0665    0.9166    0.0000 C.3       1 <0>        0.00000
     26 C19         4.7809    1.3291    0.0000 C.3       1 <0>        0.00000
     27 C20         5.4954    0.9166    0.0000 C.2       1 <0>        0.00000
     28 O3          6.2099    1.3291    0.0000 O.2       1 <0>        0.00000
     29 O4          5.4954    0.0916    0.0000 O.3       1 <0>        0.00000
     30 C21         3.3520    2.1541    0.0000 C.2       1 <0>        0.00000
     31 O5          4.0665    2.5666    0.0000 O.2       1 <0>        0.00000
     32 O6          2.6375    2.5666    0.0000 O.3       1 <0>        0.00000
     33 C22        -0.9348   -1.1459    0.0000 C.3       1 <0>        0.00000
     34 C23        -1.6493   -1.5584    0.0000 C.1       1 <0>        0.00000
     35 C24        -2.3638   -1.9709    0.0000 C.1       1 <0>        0.00000
     36 H1          3.3520    0.7451    0.0000 H         1 <0>        0.00000
     37 H2         -4.5072   -1.5584    0.0000 H         1 <0>        0.00000
     38 H3         -5.9361   -1.5584    0.0000 H         1 <0>        0.00000
     39 H4         -5.9361   -1.5584    0.0000 H         1 <0>        0.00000
     40 H5         -3.0782    0.0916    0.0000 H         1 <0>        0.00000
     41 H6         -2.3638   -1.1459    0.0000 H         1 <0>        0.00000
     42 H7         -3.0782   -1.5584    0.0000 H         1 <0>        0.00000
     43 H8         -1.6493    0.0916    0.0000 H         1 <0>        0.00000
     44 H9         -1.6493    0.0916    0.0000 H         1 <0>        0.00000
     45 H10         1.2086    0.0916    0.0000 H         1 <0>        0.00000
     46 H11         0.4941   -0.3209    0.0000 H         1 <0>        0.00000
     47 H12        -0.2204    0.9166    0.0000 H         1 <0>        0.00000
     48 H13         0.4941    1.3291    0.0000 H         1 <0>        0.00000
     49 H14         2.6375    0.9166    0.0000 H         1 <0>        0.00000
     50 H15         4.0665    0.9166    0.0000 H         1 <0>        0.00000
     51 H16         4.0665    0.9166    0.0000 H         1 <0>        0.00000
     52 H17         4.7809    1.3291    0.0000 H         1 <0>        0.00000
     53 H18         4.7809    1.3291    0.0000 H         1 <0>        0.00000
     54 H19         5.4954    0.0916    0.0000 H         1 <0>        0.00000
     55 H20         2.6375    2.5666    0.0000 H         1 <0>        0.00000
     56 H21        -0.9348   -1.1459    0.0000 H         1 <0>        0.00000
     57 H22        -0.9348   -1.1459    0.0000 H         1 <0>        0.00000
     58 H23        -2.3638   -1.9709    0.0000 H         1 <0>        0.00000
@<TRIPOS>BOND
     1    1    2 1
     2    1   12 1
     3    2    3 1
     4    2    4 2
     5    4    5 1
     6    5    6 2
     7    5    7 1
     8    7    8 ar
     9    7   12 ar
    10    8    9 ar
    11    9   10 ar
    12    9   13 1
    13   10   11 ar
    14   11   12 ar
    15   13   14 1
    16   14   18 1
    17   14   33 1
    18   15   16 ar
    19   15   20 ar
    20   15   21 1
    21   16   17 ar
    22   17   18 ar
    23   18   19 ar
    24   19   20 ar
    25   21   22 2
    26   21   23 am
    27   23   24 1
    28   24   25 1
    29   24   30 1
    30   24   36 1
    31   25   26 1
    32   26   27 1
    33   27   28 2
    34   27   29 1
    35   30   31 2
    36   30   32 1
    37   33   34 1
    38   34   35 3
    39    1   37 1
    40    3   38 1
    41    3   39 1
    42    8   40 1
    43   10   41 1
    44   11   42 1
    45   13   43 1
    46   13   44 1
    47   16   45 1
    48   17   46 1
    49   19   47 1
    50   20   48 1
    51   23   49 1
    52   25   50 1
    53   25   51 1
    54   26   52 1
    55   26   53 1
    56   29   54 1
    57   32   55 1
    58   33   56 1
    59   33   57 1
    60   35   58 1
@<TRIPOS>SUBSTRUCTURE
     1 <0>         1 GROUP 0 A     ****
@<TRIPOS>MOLECULE
MiniDrugBank_175
   12    12     1     0     0
SMALL
NO_CHARGES

@<TRIPOS>ATOM
      1 I1          2.1434    1.2375    0.0000 I         1 <0>        0.00000
      2 C1          1.4289    0.8250    0.0000 C.ar      1 <0>        0.00000
      3 C2          1.4289    0.0000    0.0000 C.ar      1 <0>        0.00000
      4 N1          0.7145   -0.4125    0.0000 N.am      1 <0>        0.00000
      5 C3          0.0000    0.0000    0.0000 C.ar      1 <0>        0.00000
      6 O1         -0.7145   -0.4125    0.0000 O.2       1 <0>        0.00000
      7 N2          0.0000    0.8250    0.0000 N.am      1 <0>        0.00000
      8 C4          0.7145    1.2375    0.0000 C.ar      1 <0>        0.00000
      9 O2          0.7145    2.0625    0.0000 O.2       1 <0>        0.00000
     10 H1          1.4289    0.0000    0.0000 H         1 <0>        0.00000
     11 H2          0.7145   -0.4125    0.0000 H         1 <0>        0.00000
     12 H3          0.0000    0.8250    0.0000 H         1 <0>        0.00000
@<TRIPOS>BOND
     1    1    2 1
     2    2    3 2
     3    3    4 1
     4    4    5 am
     5    5    6 2
     6    5    7 am
     7    7    8 am
     8    2    8 1
     9    8    9 2
    10    3   10 1
    11    4   11 1
    12    7   12 1
@<TRIPOS>SUBSTRUCTURE
     1 <0>         1 GROUP 0 A     ****
@<TRIPOS>MOLECULE
MiniDrugBank_176
   38    39     1     0     0
SMALL
NO_CHARGES

@<TRIPOS>ATOM
      1 C1          1.3222    7.2402    0.0000 C.3       1 <0>        0.00000
      2 C2          2.0367    6.8277    0.0000 C.ar      1 <0>        0.00000
      3 N1          2.7512    7.2402    0.0000 N.ar      1 <0>        0.00000
      4 C3          3.4656    6.8277    0.0000 C.ar      1 <0>        0.00000
      5 C4          3.4656    6.0027    0.0000 C.ar      1 <0>        0.00000
      6 C5          4.1801    5.5902    0.0000 C.3       1 <0>        0.00000
      7 O1          4.8946    6.0027    0.0000 O.3       1 <0>        0.00000
      8 P1          5.6091    5.5902    0.0000 P.3       1 <0>        0.00000
      9 O2          6.3235    5.1777    0.0000 O.3       1 <0>        0.00000
     10 O3          6.0216    6.3047    0.0000 O.3       1 <0>        0.00000
     11 O4          5.1966    4.8757    0.0000 O.2       1 <0>        0.00000
     12 C6          2.7512    5.5902    0.0000 C.ar      1 <0>        0.00000
     13 C7          2.7512    4.7652    0.0000 C.3       1 <0>        0.00000
     14 N2          3.4656    4.3527    0.0000 N.3       1 <0>        0.00000
     15 C8          3.4656    3.5277    0.0000 C.3       1 <0>        0.00000
     16 C9          4.1331    3.0428    0.0000 C.3       1 <0>        0.00000
     17 O5          3.8781    2.2581    0.0000 O.3       1 <0>        0.00000
     18 N3          3.0531    2.2581    0.0000 N.am      1 <0>        0.00000
     19 C10         2.7982    3.0428    0.0000 C.2       1 <0>        0.00000
     20 O6          2.0136    3.2977    0.0000 O.2       1 <0>        0.00000
     21 C11         2.0367    6.0027    0.0000 C.ar      1 <0>        0.00000
     22 O7          1.3222    5.5902    0.0000 O.3       1 <0>        0.00000
     23 H1          1.3222    7.2402    0.0000 H         1 <0>        0.00000
     24 H2          1.3222    7.2402    0.0000 H         1 <0>        0.00000
     25 H3          1.3222    7.2402    0.0000 H         1 <0>        0.00000
     26 H4          3.4656    6.8277    0.0000 H         1 <0>        0.00000
     27 H5          4.1801    5.5902    0.0000 H         1 <0>        0.00000
     28 H6          4.1801    5.5902    0.0000 H         1 <0>        0.00000
     29 H7          6.3235    5.1777    0.0000 H         1 <0>        0.00000
     30 H8          6.0216    6.3047    0.0000 H         1 <0>        0.00000
     31 H9          2.7512    4.7652    0.0000 H         1 <0>        0.00000
     32 H10         2.7512    4.7652    0.0000 H         1 <0>        0.00000
     33 H11         3.4656    4.3527    0.0000 H         1 <0>        0.00000
     34 H12         3.4656    3.5277    0.0000 H         1 <0>        0.00000
     35 H13         4.1331    3.0428    0.0000 H         1 <0>        0.00000
     36 H14         4.1331    3.0428    0.0000 H         1 <0>        0.00000
     37 H15         3.0531    2.2581    0.0000 H         1 <0>        0.00000
     38 H16         1.3222    5.5902    0.0000 H         1 <0>        0.00000
@<TRIPOS>BOND
     1    1    2 1
     2    2    3 ar
     3    3    4 ar
     4    4    5 ar
     5    5    6 1
     6    6    7 1
     7    7    8 1
     8    8    9 1
     9    8   10 1
    10    8   11 2
    11    5   12 ar
    12   12   13 1
    13   13   14 1
    14   14   15 1
    15   15   16 1
    16   16   17 1
    17   17   18 1
    18   18   19 am
    19   15   19 1
    20   19   20 2
    21   12   21 ar
    22    2   21 ar
    23   21   22 1
    24    1   23 1
    25    1   24 1
    26    1   25 1
    27    4   26 1
    28    6   27 1
    29    6   28 1
    30    9   29 1
    31   10   30 1
    32   13   31 1
    33   13   32 1
    34   14   33 1
    35   15   34 1
    36   16   35 1
    37   16   36 1
    38   18   37 1
    39   22   38 1
@<TRIPOS>SUBSTRUCTURE
     1 <0>         1 GROUP 0 A     ****
@<TRIPOS>MOLECULE
C28
   58    60     1     0     0
SMALL
NO_CHARGES

@<TRIPOS>ATOM
      1 C1          3.6552   -2.2338    0.0000 C.ar      1 <0>        0.00000
      2 C2          2.9408   -0.9963    0.0000 C.ar      1 <0>        0.00000
      3 C3          2.2263   -1.4088    0.0000 C.ar      1 <0>        0.00000
      4 C4          2.2263   -2.2338    0.0000 C.ar      1 <0>        0.00000
      5 C5          2.9408   -2.6463    0.0000 C.ar      1 <0>        0.00000
      6 C6          3.6552   -1.4088    0.0000 C.ar      1 <0>        0.00000
      7 C7          1.5118   -0.9963    0.0000 C.3       1 <0>        0.00000
      8 F1          4.3697   -2.6463    0.0000 F         1 <0>        0.00000
      9 N1          0.7973   -1.4088    0.0000 N.3       1 <0>        0.00000
     10 C8          1.5118   -0.1713    0.0000 C.3       1 <0>        0.00000
     11 C9          0.0829   -0.9963    0.0000 C.3       1 <0>        0.00000
     12 C10         0.0829   -0.1713    0.0000 C.2       1 <0>        0.00000
     13 C11        -0.6316   -1.4088    0.0000 C.3       1 <0>        0.00000
     14 S1         -1.3461   -0.9963    0.0000 S.o2      1 <0>        0.00000
     15 N2         -2.0605   -0.5838    0.0000 N.pl3     1 <0>        0.00000
     16 N3         -0.6316    0.2412    0.0000 N.am      1 <0>        0.00000
     17 O1          0.7973    0.2412    0.0000 O.2       1 <0>        0.00000
     18 C12        -0.6316    1.0662    0.0000 C.3       1 <0>        0.00000
     19 C13        -0.3494    1.8414    0.0000 C.3       1 <0>        0.00000
     20 C14         0.1809    1.2094    0.0000 C.3       1 <0>        0.00000
     21 O2         -0.9336   -0.2819    0.0000 O.2       1 <0>        0.00000
     22 F2          1.5118    0.6537    0.0000 F         1 <0>        0.00000
     23 F3          2.3368   -0.1713    0.0000 F         1 <0>        0.00000
     24 F4          0.6868   -0.1713    0.0000 F         1 <0>        0.00000
     25 O3         -1.7586   -1.7108    0.0000 O.2       1 <0>        0.00000
     26 C15        -2.7750   -0.9963    0.0000 C.3       1 <0>        0.00000
     27 C16        -3.4895   -0.5838    0.0000 C.3       1 <0>        0.00000
     28 O4         -3.4895    0.2412    0.0000 O.3       1 <0>        0.00000
     29 C17        -2.7750    0.6537    0.0000 C.3       1 <0>        0.00000
     30 C18        -2.0605    0.2412    0.0000 C.3       1 <0>        0.00000
     31 N4         -1.7262    1.9847    0.0000 N.3       1 <0>        0.00000
     32 C19        -1.4441    1.2094    0.0000 C.3       1 <0>        0.00000
     33 H1          1.5118   -1.5803    0.0000 H         1 <0>        0.00000
     34 H2          0.5886   -0.7044    0.0000 H         1 <0>        0.00000
     35 H3          2.9408   -0.9963    0.0000 H         1 <0>        0.00000
     36 H4          2.2263   -2.2338    0.0000 H         1 <0>        0.00000
     37 H5          2.9408   -2.6463    0.0000 H         1 <0>        0.00000
     38 H6          3.6552   -1.4088    0.0000 H         1 <0>        0.00000
     39 H7          0.7973   -1.4088    0.0000 H         1 <0>        0.00000
     40 H8         -0.6316   -1.4088    0.0000 H         1 <0>        0.00000
     41 H9         -0.6316   -1.4088    0.0000 H         1 <0>        0.00000
     42 H10        -0.6316    0.2412    0.0000 H         1 <0>        0.00000
     43 H11        -0.3494    1.8414    0.0000 H         1 <0>        0.00000
     44 H12        -0.3494    1.8414    0.0000 H         1 <0>        0.00000
     45 H13         0.1809    1.2094    0.0000 H         1 <0>        0.00000
     46 H14         0.1809    1.2094    0.0000 H         1 <0>        0.00000
     47 H15        -2.7750   -0.9963    0.0000 H         1 <0>        0.00000
     48 H16        -2.7750   -0.9963    0.0000 H         1 <0>        0.00000
     49 H17        -3.4895   -0.5838    0.0000 H         1 <0>        0.00000
     50 H18        -3.4895   -0.5838    0.0000 H         1 <0>        0.00000
     51 H19        -2.7750    0.6537    0.0000 H         1 <0>        0.00000
     52 H20        -2.7750    0.6537    0.0000 H         1 <0>        0.00000
     53 H21        -2.0605    0.2412    0.0000 H         1 <0>        0.00000
     54 H22        -2.0605    0.2412    0.0000 H         1 <0>        0.00000
     55 H23        -1.7262    1.9847    0.0000 H         1 <0>        0.00000
     56 H24        -1.7262    1.9847    0.0000 H         1 <0>        0.00000
     57 H25        -1.4441    1.2094    0.0000 H         1 <0>        0.00000
     58 H26        -1.4441    1.2094    0.0000 H         1 <0>        0.00000
@<TRIPOS>BOND
     1    1    5 ar
     2    1    6 ar
     3    1    8 1
     4    2    3 ar
     5    2    6 ar
     6    3    4 ar
     7    3    7 1
     8    4    5 ar
     9    7    9 1
    10    7   10 1
    11    7   33 1
    12    9   11 1
    13   10   22 1
    14   10   23 1
    15   10   24 1
    16   11   12 1
    17   11   13 1
    18   11   34 1
    19   12   16 am
    20   12   17 2
    21   13   14 1
    22   14   15 1
    23   14   21 2
    24   14   25 2
    25   15   26 1
    26   15   30 1
    27   16   18 1
    28   18   19 1
    29   18   20 1
    30   18   32 1
    31   19   20 1
    32   26   27 1
    33   27   28 1
    34   28   29 1
    35   29   30 1
    36   31   32 1
    37    2   35 1
    38    4   36 1
    39    5   37 1
    40    6   38 1
    41    9   39 1
    42   13   40 1
    43   13   41 1
    44   16   42 1
    45   19   43 1
    46   19   44 1
    47   20   45 1
    48   20   46 1
    49   26   47 1
    50   26   48 1
    51   27   49 1
    52   27   50 1
    53   29   51 1
    54   29   52 1
    55   30   53 1
    56   30   54 1
    57   31   55 1
    58   31   56 1
    59   32   57 1
    60   32   58 1
@<TRIPOS>SUBSTRUCTURE
     1 <0>         1 GROUP 0 A     ****
@<TRIPOS>MOLECULE
MiniDrugBank_178
   61    62     1     0     0
SMALL
NO_CHARGES

@<TRIPOS>ATOM
      1 N1         -0.7145    0.4125    0.0000 N.ar      1 <0>        0.00000
      2 C1         -0.7145   -0.4125    0.0000 C.ar      1 <0>        0.00000
      3 C2          0.0000    0.8250    0.0000 C.ar      1 <0>        0.00000
      4 C3          0.7145    0.4125    0.0000 C.ar      1 <0>        0.00000
      5 C4          0.7145   -0.4125    0.0000 C.ar      1 <0>        0.00000
      6 N2          0.0000   -0.8250    0.0000 N.ar      1 <0>        0.00000
      7 N3         -1.4289   -0.8250    0.0000 N.pl3     1 <0>        0.00000
      8 C5          1.4289   -0.8250    0.0000 C.3       1 <0>        0.00000
      9 C6          1.4289   -1.6500    0.0000 C.3       1 <0>        0.00000
     10 C7          2.1434   -0.4125    0.0000 C.3       1 <0>        0.00000
     11 C8          0.0000    1.6500    0.0000 C.ar      1 <0>        0.00000
     12 C9         -0.7145    2.0625    0.0000 C.ar      1 <0>        0.00000
     13 C10        -0.7145    2.8875    0.0000 C.ar      1 <0>        0.00000
     14 C11         0.0000    3.3000    0.0000 C.ar      1 <0>        0.00000
     15 C12         0.7145    2.8875    0.0000 C.ar      1 <0>        0.00000
     16 C13         0.7145    2.0625    0.0000 C.ar      1 <0>        0.00000
     17 F1          0.0000    4.1250    0.0000 F         1 <0>        0.00000
     18 C14         1.4289    0.8250    0.0000 C.2       1 <0>        0.00000
     19 C15         2.1473    0.4193    0.0000 C.2       1 <0>        0.00000
     20 C16         2.8578    0.8385    0.0000 C.3       1 <0>        0.00000
     21 C17         3.5762    0.4328    0.0000 C.3       1 <0>        0.00000
     22 C18         4.2867    0.8521    0.0000 C.3       1 <0>        0.00000
     23 C19         5.0050    0.4464    0.0000 C.3       1 <0>        0.00000
     24 C20         5.7156    0.8656    0.0000 C.2       1 <0>        0.00000
     25 O1          5.7078    1.6906    0.0000 O.2       1 <0>        0.00000
     26 O2          6.4339    0.4599    0.0000 O.3       1 <0>        0.00000
     27 O3          4.2789    1.6770    0.0000 O.3       1 <0>        0.00000
     28 O4          2.8500    1.6635    0.0000 O.3       1 <0>        0.00000
     29 C21        -1.4289   -2.4750    0.0000 C.3       1 <0>        0.00000
     30 O5         -0.6039   -1.6500    0.0000 O.2       1 <0>        0.00000
     31 S1         -1.4289   -1.6500    0.0000 S.o2      1 <0>        0.00000
     32 O6         -2.2539   -1.6500    0.0000 O.2       1 <0>        0.00000
     33 C22        -2.1434   -0.4125    0.0000 C.3       1 <0>        0.00000
     34 H1          1.4289   -0.8250    0.0000 H         1 <0>        0.00000
     35 H2          1.4289   -1.6500    0.0000 H         1 <0>        0.00000
     36 H3          1.4289   -1.6500    0.0000 H         1 <0>        0.00000
     37 H4          1.4289   -1.6500    0.0000 H         1 <0>        0.00000
     38 H5          2.1434   -0.4125    0.0000 H         1 <0>        0.00000
     39 H6          2.1434   -0.4125    0.0000 H         1 <0>        0.00000
     40 H7          2.1434   -0.4125    0.0000 H         1 <0>        0.00000
     41 H8         -0.7145    2.0625    0.0000 H         1 <0>        0.00000
     42 H9         -0.7145    2.8875    0.0000 H         1 <0>        0.00000
     43 H10         0.7145    2.8875    0.0000 H         1 <0>        0.00000
     44 H11         0.7145    2.0625    0.0000 H         1 <0>        0.00000
     45 H12         1.4289    0.8250    0.0000 H         1 <0>        0.00000
     46 H13         2.1473    0.4193    0.0000 H         1 <0>        0.00000
     47 H14         2.8578    0.8385    0.0000 H         1 <0>        0.00000
     48 H15         3.5762    0.4328    0.0000 H         1 <0>        0.00000
     49 H16         3.5762    0.4328    0.0000 H         1 <0>        0.00000
     50 H17         4.2867    0.8521    0.0000 H         1 <0>        0.00000
     51 H18         5.0050    0.4464    0.0000 H         1 <0>        0.00000
     52 H19         5.0050    0.4464    0.0000 H         1 <0>        0.00000
     53 H20         6.4339    0.4599    0.0000 H         1 <0>        0.00000
     54 H21         4.2789    1.6770    0.0000 H         1 <0>        0.00000
     55 H22         2.8500    1.6635    0.0000 H         1 <0>        0.00000
     56 H23        -1.4289   -2.4750    0.0000 H         1 <0>        0.00000
     57 H24        -1.4289   -2.4750    0.0000 H         1 <0>        0.00000
     58 H25        -1.4289   -2.4750    0.0000 H         1 <0>        0.00000
     59 H26        -2.1434   -0.4125    0.0000 H         1 <0>        0.00000
     60 H27        -2.1434   -0.4125    0.0000 H         1 <0>        0.00000
     61 H28        -2.1434   -0.4125    0.0000 H         1 <0>        0.00000
@<TRIPOS>BOND
     1    1    2 ar
     2    2    7 1
     3    1    3 ar
     4    3   11 1
     5    3    4 ar
     6    4   18 1
     7    4    5 ar
     8    5    8 1
     9    2    6 ar
    10    5    6 ar
    11    7   31 1
    12    7   33 1
    13    8    9 1
    14    8   10 1
    15   11   12 ar
    16   11   16 ar
    17   12   13 ar
    18   13   14 ar
    19   14   15 ar
    20   14   17 1
    21   15   16 ar
    22   18   19 2
    23   19   20 1
    24   20   21 1
    25   20   28 1
    26   21   22 1
    27   22   23 1
    28   22   27 1
    29   23   24 1
    30   24   25 2
    31   24   26 1
    32   29   31 1
    33   30   31 2
    34   31   32 2
    35    8   34 1
    36    9   35 1
    37    9   36 1
    38    9   37 1
    39   10   38 1
    40   10   39 1
    41   10   40 1
    42   12   41 1
    43   13   42 1
    44   15   43 1
    45   16   44 1
    46   18   45 1
    47   19   46 1
    48   20   47 1
    49   21   48 1
    50   21   49 1
    51   22   50 1
    52   23   51 1
    53   23   52 1
    54   26   53 1
    55   27   54 1
    56   28   55 1
    57   29   56 1
    58   29   57 1
    59   29   58 1
    60   33   59 1
    61   33   60 1
    62   33   61 1
@<TRIPOS>SUBSTRUCTURE
     1 <0>         1 GROUP 0 A     ****
@<TRIPOS>MOLECULE
MiniDrugBank_179
   50    50     1     0     0
SMALL
NO_CHARGES

@<TRIPOS>ATOM
      1 N1         -0.2362    3.8782    0.0000 N.3       1 <0>        0.00000
      2 C1         -0.7762    3.2546    0.0000 C.3       1 <0>        0.00000
      3 C2         -1.5864    3.4105    0.0000 C.3       1 <0>        0.00000
      4 C3         -1.8564    4.1900    0.0000 C.3       1 <0>        0.00000
      5 C4         -2.6666    4.3459    0.0000 C.2       1 <0>        0.00000
      6 O1         -3.2066    3.7223    0.0000 O.2       1 <0>        0.00000
      7 N2         -2.9366    5.1255    0.0000 N.am      1 <0>        0.00000
      8 C5         -3.7467    5.2814    0.0000 C.3       1 <0>        0.00000
      9 C6         -4.0168    6.0609    0.0000 C.3       1 <0>        0.00000
     10 S1         -4.8269    6.2168    0.0000 S.3       1 <0>        0.00000
     11 C7         -5.0970    6.9964    0.0000 C.3       1 <0>        0.00000
     12 C8         -5.9071    7.1523    0.0000 C.ar      1 <0>        0.00000
     13 C9         -6.4472    6.5287    0.0000 C.ar      1 <0>        0.00000
     14 C10        -7.2573    6.6846    0.0000 C.ar      1 <0>        0.00000
     15 C11        -7.5274    7.4641    0.0000 C.ar      1 <0>        0.00000
     16 C12        -6.9873    8.0878    0.0000 C.ar      1 <0>        0.00000
     17 C13        -6.1771    7.9319    0.0000 C.ar      1 <0>        0.00000
     18 I1         -5.6370    8.5555    0.0000 I         1 <0>        0.00000
     19 C14        -4.2868    4.6577    0.0000 C.2       1 <0>        0.00000
     20 O2         -5.0970    4.8137    0.0000 O.2       1 <0>        0.00000
     21 N3         -4.0168    3.8782    0.0000 N.am      1 <0>        0.00000
     22 C15        -4.5569    3.2546    0.0000 C.3       1 <0>        0.00000
     23 C16        -4.2868    2.4750    0.0000 C.2       1 <0>        0.00000
     24 O3         -3.4767    2.3191    0.0000 O.3       1 <0>        0.00000
     25 O4         -4.8269    1.8514    0.0000 O.2       1 <0>        0.00000
     26 C17        -0.5062    2.4750    0.0000 C.2       1 <0>        0.00000
     27 O5          0.3039    2.3191    0.0000 O.3       1 <0>        0.00000
     28 O6         -1.0463    1.8514    0.0000 O.2       1 <0>        0.00000
     29 H1         -0.2362    3.8782    0.0000 H         1 <0>        0.00000
     30 H2         -0.2362    3.8782    0.0000 H         1 <0>        0.00000
     31 H3         -0.7762    3.2546    0.0000 H         1 <0>        0.00000
     32 H4         -1.5864    3.4105    0.0000 H         1 <0>        0.00000
     33 H5         -1.5864    3.4105    0.0000 H         1 <0>        0.00000
     34 H6         -1.8564    4.1900    0.0000 H         1 <0>        0.00000
     35 H7         -1.8564    4.1900    0.0000 H         1 <0>        0.00000
     36 H8         -2.9366    5.1255    0.0000 H         1 <0>        0.00000
     37 H9         -3.7467    5.2814    0.0000 H         1 <0>        0.00000
     38 H10        -4.0168    6.0609    0.0000 H         1 <0>        0.00000
     39 H11        -4.0168    6.0609    0.0000 H         1 <0>        0.00000
     40 H12        -5.0970    6.9964    0.0000 H         1 <0>        0.00000
     41 H13        -5.0970    6.9964    0.0000 H         1 <0>        0.00000
     42 H14        -6.4472    6.5287    0.0000 H         1 <0>        0.00000
     43 H15        -7.2573    6.6846    0.0000 H         1 <0>        0.00000
     44 H16        -7.5274    7.4641    0.0000 H         1 <0>        0.00000
     45 H17        -6.9873    8.0878    0.0000 H         1 <0>        0.00000
     46 H18        -4.0168    3.8782    0.0000 H         1 <0>        0.00000
     47 H19        -4.5569    3.2546    0.0000 H         1 <0>        0.00000
     48 H20        -4.5569    3.2546    0.0000 H         1 <0>        0.00000
     49 H21        -3.4767    2.3191    0.0000 H         1 <0>        0.00000
     50 H22         0.3039    2.3191    0.0000 H         1 <0>        0.00000
@<TRIPOS>BOND
     1    1    2 1
     2    2    3 1
     3    3    4 1
     4    4    5 1
     5    5    6 2
     6    5    7 am
     7    7    8 1
     8    8    9 1
     9    9   10 1
    10   10   11 1
    11   11   12 1
    12   12   13 ar
    13   13   14 ar
    14   14   15 ar
    15   15   16 ar
    16   16   17 ar
    17   12   17 ar
    18   17   18 1
    19    8   19 1
    20   19   20 2
    21   19   21 am
    22   21   22 1
    23   22   23 1
    24   23   24 1
    25   23   25 2
    26    2   26 1
    27   26   27 1
    28   26   28 2
    29    1   29 1
    30    1   30 1
    31    2   31 1
    32    3   32 1
    33    3   33 1
    34    4   34 1
    35    4   35 1
    36    7   36 1
    37    8   37 1
    38    9   38 1
    39    9   39 1
    40   11   40 1
    41   11   41 1
    42   13   42 1
    43   14   43 1
    44   15   44 1
    45   16   45 1
    46   21   46 1
    47   22   47 1
    48   22   48 1
    49   24   49 1
    50   27   50 1
@<TRIPOS>SUBSTRUCTURE
     1 <0>         1 GROUP 0 A     ****
@<TRIPOS>MOLECULE
MiniDrugBank_180
   30    31     1     0     0
SMALL
NO_CHARGES

@<TRIPOS>ATOM
      1 O1          1.4289    0.8250    0.0000 O.3       1 <0>        0.00000
      2 C1          1.4289    0.0000    0.0000 C.2       1 <0>        0.00000
      3 O2          0.7145   -0.4125    0.0000 O.2       1 <0>        0.00000
      4 C2          2.1434   -0.4125    0.0000 C.3       1 <0>        0.00000
      5 C3          2.1434   -1.2375    0.0000 C.ar      1 <0>        0.00000
      6 C4          2.8579   -1.6500    0.0000 C.ar      1 <0>        0.00000
      7 C5          2.8579   -2.4750    0.0000 C.ar      1 <0>        0.00000
      8 I1          3.5724   -2.8875    0.0000 I         1 <0>        0.00000
      9 C6          2.1434   -2.8875    0.0000 C.ar      1 <0>        0.00000
     10 O3          2.1434   -3.7125    0.0000 O.3       1 <0>        0.00000
     11 C7          1.4289   -4.1250    0.0000 C.ar      1 <0>        0.00000
     12 C8          1.4289   -4.9500    0.0000 C.ar      1 <0>        0.00000
     13 C9          0.7145   -5.3625    0.0000 C.ar      1 <0>        0.00000
     14 C10         0.0000   -4.9500    0.0000 C.ar      1 <0>        0.00000
     15 O4         -0.7145   -5.3625    0.0000 O.3       1 <0>        0.00000
     16 C11         0.0000   -4.1250    0.0000 C.ar      1 <0>        0.00000
     17 I2         -0.7145   -3.7125    0.0000 I         1 <0>        0.00000
     18 C12         0.7145   -3.7125    0.0000 C.ar      1 <0>        0.00000
     19 C13         1.4289   -2.4750    0.0000 C.ar      1 <0>        0.00000
     20 I3          0.7145   -2.8875    0.0000 I         1 <0>        0.00000
     21 C14         1.4289   -1.6500    0.0000 C.ar      1 <0>        0.00000
     22 H1          1.4289    0.8250    0.0000 H         1 <0>        0.00000
     23 H2          2.1434   -0.4125    0.0000 H         1 <0>        0.00000
     24 H3          2.1434   -0.4125    0.0000 H         1 <0>        0.00000
     25 H4          2.8579   -1.6500    0.0000 H         1 <0>        0.00000
     26 H5          1.4289   -4.9500    0.0000 H         1 <0>        0.00000
     27 H6          0.7145   -5.3625    0.0000 H         1 <0>        0.00000
     28 H7         -0.7145   -5.3625    0.0000 H         1 <0>        0.00000
     29 H8          0.7145   -3.7125    0.0000 H         1 <0>        0.00000
     30 H9          1.4289   -1.6500    0.0000 H         1 <0>        0.00000
@<TRIPOS>BOND
     1    1    2 1
     2    2    3 2
     3    2    4 1
     4    4    5 1
     5    5    6 ar
     6    6    7 ar
     7    7    8 1
     8    7    9 ar
     9    9   10 1
    10   10   11 1
    11   11   12 ar
    12   12   13 ar
    13   13   14 ar
    14   14   15 1
    15   14   16 ar
    16   16   17 1
    17   16   18 ar
    18   11   18 ar
    19    9   19 ar
    20   19   20 1
    21   19   21 ar
    22    5   21 ar
    23    1   22 1
    24    4   23 1
    25    4   24 1
    26    6   25 1
    27   12   26 1
    28   13   27 1
    29   15   28 1
    30   18   29 1
    31   21   30 1
@<TRIPOS>SUBSTRUCTURE
     1 <0>         1 GROUP 0 A     ****
@<TRIPOS>MOLECULE
1118
   60    62     1     0     0
SMALL
NO_CHARGES

@<TRIPOS>ATOM
      1 I1          6.2432    1.7958    0.0000 I         1 <0>        0.00000
      2 I2          6.8325   -1.0007    0.0000 I         1 <0>        0.00000
      3 O1          3.8597   -2.2249    0.0000 O.3       1 <0>        0.00000
      4 O2          7.3451    0.5677    0.0000 O.3       1 <0>        0.00000
      5 O3          3.5650    0.5012    0.0000 O.2       1 <0>        0.00000
      6 N1          8.6650    2.3062    0.0000 N.3       1 <0>        0.00000
      7 C1          5.1662   -1.5610    0.0000 C.3       1 <0>        0.00000
      8 C2          4.3412   -1.5610    0.0000 C.ar      1 <0>        0.00000
      9 C3          3.8597   -0.8970    0.0000 C.ar      1 <0>        0.00000
     10 C4          5.5787   -2.2755    0.0000 C.3       1 <0>        0.00000
     11 C5          3.0791   -1.1485    0.0000 C.ar      1 <0>        0.00000
     12 C6          3.0791   -1.9735    0.0000 C.ar      1 <0>        0.00000
     13 C7          8.4087    1.5220    0.0000 C.3       1 <0>        0.00000
     14 C8          5.1662   -2.9899    0.0000 C.3       1 <0>        0.00000
     15 C9          4.1159   -0.1129    0.0000 C.2       1 <0>        0.00000
     16 C10         9.4723    2.4763    0.0000 C.3       1 <0>        0.00000
     17 C11         8.1140    2.9202    0.0000 C.3       1 <0>        0.00000
     18 C12         7.6014    1.3519    0.0000 C.3       1 <0>        0.00000
     19 C13         2.3645   -0.7360    0.0000 C.ar      1 <0>        0.00000
     20 C14         4.9232    0.0573    0.0000 C.ar      1 <0>        0.00000
     21 C15         2.3645   -2.3860    0.0000 C.ar      1 <0>        0.00000
     22 C16         5.5787   -3.7044    0.0000 C.3       1 <0>        0.00000
     23 C17         9.7286    3.2606    0.0000 C.3       1 <0>        0.00000
     24 C18         8.3703    3.7044    0.0000 C.3       1 <0>        0.00000
     25 C19         6.5379    0.3975    0.0000 C.ar      1 <0>        0.00000
     26 C20         1.6500   -1.1485    0.0000 C.ar      1 <0>        0.00000
     27 C21         1.6500   -1.9735    0.0000 C.ar      1 <0>        0.00000
     28 C22         5.1795    0.8414    0.0000 C.ar      1 <0>        0.00000
     29 C23         5.4742   -0.5568    0.0000 C.ar      1 <0>        0.00000
     30 C24         5.9868    1.0116    0.0000 C.ar      1 <0>        0.00000
     31 C25         6.2815   -0.3867    0.0000 C.ar      1 <0>        0.00000
     32 H1          5.1662   -1.5610    0.0000 H         1 <0>        0.00000
     33 H2          5.1662   -1.5610    0.0000 H         1 <0>        0.00000
     34 H3          5.5787   -2.2755    0.0000 H         1 <0>        0.00000
     35 H4          5.5787   -2.2755    0.0000 H         1 <0>        0.00000
     36 H5          8.4087    1.5220    0.0000 H         1 <0>        0.00000
     37 H6          8.4087    1.5220    0.0000 H         1 <0>        0.00000
     38 H7          5.1662   -2.9899    0.0000 H         1 <0>        0.00000
     39 H8          5.1662   -2.9899    0.0000 H         1 <0>        0.00000
     40 H9          9.4723    2.4763    0.0000 H         1 <0>        0.00000
     41 H10         9.4723    2.4763    0.0000 H         1 <0>        0.00000
     42 H11         8.1140    2.9202    0.0000 H         1 <0>        0.00000
     43 H12         8.1140    2.9202    0.0000 H         1 <0>        0.00000
     44 H13         7.6014    1.3519    0.0000 H         1 <0>        0.00000
     45 H14         7.6014    1.3519    0.0000 H         1 <0>        0.00000
     46 H15         2.3645   -0.7360    0.0000 H         1 <0>        0.00000
     47 H16         2.3645   -2.3860    0.0000 H         1 <0>        0.00000
     48 H17         5.5787   -3.7044    0.0000 H         1 <0>        0.00000
     49 H18         5.5787   -3.7044    0.0000 H         1 <0>        0.00000
     50 H19         5.5787   -3.7044    0.0000 H         1 <0>        0.00000
     51 H20         9.7286    3.2606    0.0000 H         1 <0>        0.00000
     52 H21         9.7286    3.2606    0.0000 H         1 <0>        0.00000
     53 H22         9.7286    3.2606    0.0000 H         1 <0>        0.00000
     54 H23         8.3703    3.7044    0.0000 H         1 <0>        0.00000
     55 H24         8.3703    3.7044    0.0000 H         1 <0>        0.00000
     56 H25         8.3703    3.7044    0.0000 H         1 <0>        0.00000
     57 H26         1.6500   -1.1485    0.0000 H         1 <0>        0.00000
     58 H27         1.6500   -1.9735    0.0000 H         1 <0>        0.00000
     59 H28         5.1795    0.8414    0.0000 H         1 <0>        0.00000
     60 H29         5.4742   -0.5568    0.0000 H         1 <0>        0.00000
@<TRIPOS>BOND
     1    1   30 1
     2    2   31 1
     3    3    8 1
     4    3   12 1
     5    4   18 1
     6    4   25 1
     7    5   15 2
     8    6   13 1
     9    6   16 1
    10    6   17 1
    11    7    8 1
    12    7   10 1
    13    8    9 2
    14    9   11 1
    15    9   15 1
    16   10   14 1
    17   11   12 ar
    18   11   19 ar
    19   12   21 ar
    20   13   18 1
    21   14   22 1
    22   15   20 1
    23   16   23 1
    24   17   24 1
    25   19   26 ar
    26   20   28 ar
    27   20   29 ar
    28   21   27 ar
    29   25   30 ar
    30   25   31 ar
    31   26   27 ar
    32   28   30 ar
    33   29   31 ar
    34    7   32 1
    35    7   33 1
    36   10   34 1
    37   10   35 1
    38   13   36 1
    39   13   37 1
    40   14   38 1
    41   14   39 1
    42   16   40 1
    43   16   41 1
    44   17   42 1
    45   17   43 1
    46   18   44 1
    47   18   45 1
    48   19   46 1
    49   21   47 1
    50   22   48 1
    51   22   49 1
    52   22   50 1
    53   23   51 1
    54   23   52 1
    55   23   53 1
    56   24   54 1
    57   24   55 1
    58   24   56 1
    59   26   57 1
    60   27   58 1
    61   28   59 1
    62   29   60 1
@<TRIPOS>SUBSTRUCTURE
     1 <0>         1 GROUP 0 A     ****
@<TRIPOS>MOLECULE
1119
   21    22     1     0     0
SMALL
NO_CHARGES

@<TRIPOS>ATOM
      1 Cl1         5.7524   -0.7138    0.0000 Cl        1 <0>        0.00000
      2 S1          2.9562   -0.6947    0.0000 S.o2      1 <0>        0.00000
      3 O1          3.3523   -1.3807    0.0000 O.2       1 <0>        0.00000
      4 O2          2.5601   -1.3807    0.0000 O.2       1 <0>        0.00000
      5 N1          2.9562    0.8895    0.0000 N.pl3     1 <0>        0.00000
      6 N2          2.2702   -0.2986    0.0000 N.ar      1 <0>        0.00000
      7 C1          3.6422   -0.2986    0.0000 C.ar      1 <0>        0.00000
      8 C2          3.6422    0.4934    0.0000 C.ar      1 <0>        0.00000
      9 C3          2.2702    0.4934    0.0000 C.ar      1 <0>        0.00000
     10 C4          4.3502   -0.7221    0.0000 C.ar      1 <0>        0.00000
     11 C5          4.3502    0.9170    0.0000 C.ar      1 <0>        0.00000
     12 C6          5.0680   -0.3151    0.0000 C.ar      1 <0>        0.00000
     13 C7          5.0680    0.5100    0.0000 C.ar      1 <0>        0.00000
     14 C8          1.5842    0.8895    0.0000 C.3       1 <0>        0.00000
     15 H1          2.9562    0.8895    0.0000 H         1 <0>        0.00000
     16 H2          4.3502   -0.7221    0.0000 H         1 <0>        0.00000
     17 H3          4.3502    0.9170    0.0000 H         1 <0>        0.00000
     18 H4          5.0680    0.5100    0.0000 H         1 <0>        0.00000
     19 H5          1.5842    0.8895    0.0000 H         1 <0>        0.00000
     20 H6          1.5842    0.8895    0.0000 H         1 <0>        0.00000
     21 H7          1.5842    0.8895    0.0000 H         1 <0>        0.00000
@<TRIPOS>BOND
     1    1   12 1
     2    2    3 2
     3    2    4 2
     4    2    6 1
     5    2    7 1
     6    5    8 1
     7    5    9 1
     8    6    9 2
     9    7    8 ar
    10    7   10 ar
    11    8   11 ar
    12    9   14 1
    13   10   12 ar
    14   11   13 ar
    15   12   13 ar
    16    5   15 1
    17   10   16 1
    18   11   17 1
    19   13   18 1
    20   14   19 1
    21   14   20 1
    22   14   21 1
@<TRIPOS>SUBSTRUCTURE
     1 <0>         1 GROUP 0 A     ****
@<TRIPOS>MOLECULE
IS2
   27    27     1     0     0
SMALL
NO_CHARGES

@<TRIPOS>ATOM
      1 C1          1.2541    0.4213    0.0000 C.ar      1 <0>        0.00000
      2 C2          1.2541   -0.4037    0.0000 C.ar      1 <0>        0.00000
      3 C3          0.5397   -0.8162    0.0000 C.ar      1 <0>        0.00000
      4 C4         -0.1748   -0.4037    0.0000 C.ar      1 <0>        0.00000
      5 C5         -0.1748    0.4213    0.0000 C.ar      1 <0>        0.00000
      6 C6          0.5397    0.8338    0.0000 C.ar      1 <0>        0.00000
      7 N1         -0.8893   -0.8162    0.0000 N.am      1 <0>        0.00000
      8 C7         -1.6037   -0.4037    0.0000 C.2       1 <0>        0.00000
      9 O1         -1.6037    0.4213    0.0000 O.2       1 <0>        0.00000
     10 P1         -2.3182   -0.8162    0.0000 P.3       1 <0>        0.00000
     11 O2         -3.0327   -1.2287    0.0000 O.3       1 <0>        0.00000
     12 O3         -1.9057   -1.5307    0.0000 O.3       1 <0>        0.00000
     13 O4         -2.7307   -0.1017    0.0000 O.2       1 <0>        0.00000
     14 C8          1.9686    0.8338    0.0000 C.3       1 <0>        0.00000
     15 C9          1.9686    1.6588    0.0000 C.3       1 <0>        0.00000
     16 H1          1.2541   -0.4037    0.0000 H         1 <0>        0.00000
     17 H2          0.5397   -0.8162    0.0000 H         1 <0>        0.00000
     18 H3         -0.1748    0.4213    0.0000 H         1 <0>        0.00000
     19 H4          0.5397    0.8338    0.0000 H         1 <0>        0.00000
     20 H5         -0.8893   -0.8162    0.0000 H         1 <0>        0.00000
     21 H6         -3.0327   -1.2287    0.0000 H         1 <0>        0.00000
     22 H7         -1.9057   -1.5307    0.0000 H         1 <0>        0.00000
     23 H8          1.9686    0.8338    0.0000 H         1 <0>        0.00000
     24 H9          1.9686    0.8338    0.0000 H         1 <0>        0.00000
     25 H10         1.9686    1.6588    0.0000 H         1 <0>        0.00000
     26 H11         1.9686    1.6588    0.0000 H         1 <0>        0.00000
     27 H12         1.9686    1.6588    0.0000 H         1 <0>        0.00000
@<TRIPOS>BOND
     1    1    2 ar
     2    1    6 ar
     3    1   14 1
     4    2    3 ar
     5    3    4 ar
     6    4    5 ar
     7    4    7 1
     8    5    6 ar
     9    7    8 am
    10    8    9 2
    11    8   10 1
    12   10   11 1
    13   10   12 1
    14   10   13 2
    15   14   15 1
    16    2   16 1
    17    3   17 1
    18    5   18 1
    19    6   19 1
    20    7   20 1
    21   11   21 1
    22   12   22 1
    23   14   23 1
    24   14   24 1
    25   15   25 1
    26   15   26 1
    27   15   27 1
@<TRIPOS>SUBSTRUCTURE
     1 <0>         1 GROUP 0 A     ****
@<TRIPOS>MOLECULE
MiniDrugBank_184
   16    16     1     0     0
SMALL
NO_CHARGES

@<TRIPOS>ATOM
      1 S1          2.1434    2.0625    0.0000 S.3       1 <0>        0.00000
      2 C1          2.1434    1.2375    0.0000 C.3       1 <0>        0.00000
      3 C2          1.4289    0.8250    0.0000 C.ar      1 <0>        0.00000
      4 C3          1.4289    0.0000    0.0000 C.ar      1 <0>        0.00000
      5 C4          0.7145   -0.4125    0.0000 C.ar      1 <0>        0.00000
      6 C5          0.0000    0.0000    0.0000 C.ar      1 <0>        0.00000
      7 C6          0.0000    0.8250    0.0000 C.ar      1 <0>        0.00000
      8 C7          0.7145    1.2375    0.0000 C.ar      1 <0>        0.00000
      9 I1          0.7145    2.0625    0.0000 I         1 <0>        0.00000
     10 H1          2.1434    2.0625    0.0000 H         1 <0>        0.00000
     11 H2          2.1434    1.2375    0.0000 H         1 <0>        0.00000
     12 H3          2.1434    1.2375    0.0000 H         1 <0>        0.00000
     13 H4          1.4289    0.0000    0.0000 H         1 <0>        0.00000
     14 H5          0.7145   -0.4125    0.0000 H         1 <0>        0.00000
     15 H6          0.0000    0.0000    0.0000 H         1 <0>        0.00000
     16 H7          0.0000    0.8250    0.0000 H         1 <0>        0.00000
@<TRIPOS>BOND
     1    1    2 1
     2    2    3 1
     3    3    4 ar
     4    4    5 ar
     5    5    6 ar
     6    6    7 ar
     7    7    8 ar
     8    3    8 ar
     9    8    9 1
    10    1   10 1
    11    2   11 1
    12    2   12 1
    13    4   13 1
    14    5   14 1
    15    6   15 1
    16    7   16 1
@<TRIPOS>SUBSTRUCTURE
     1 <0>         1 GROUP 0 A     ****
@<TRIPOS>MOLECULE
CM6
   44    47     1     0     0
SMALL
NO_CHARGES

@<TRIPOS>ATOM
      1 O1         -0.6144    1.8899    0.0000 O.2       1 <0>        0.00000
      2 C1         -0.6144    1.0649    0.0000 C.2       1 <0>        0.00000
      3 N1         -1.3289    0.6524    0.0000 N.am      1 <0>        0.00000
      4 C2         -2.0434    1.0649    0.0000 C.ar      1 <0>        0.00000
      5 C3         -2.7578    0.6524    0.0000 C.ar      1 <0>        0.00000
      6 C4         -3.4723    1.0649    0.0000 C.ar      1 <0>        0.00000
      7 N2         -3.4723    1.8899    0.0000 N.ar      1 <0>        0.00000
      8 C5         -2.7578    2.3024    0.0000 C.ar      1 <0>        0.00000
      9 C6         -2.0434    1.8899    0.0000 C.ar      1 <0>        0.00000
     10 C7          0.1000    0.6524    0.0000 C.3       1 <0>        0.00000
     11 N3          0.8145    1.0649    0.0000 N.pl3     1 <0>        0.00000
     12 S1          1.5290    0.6524    0.0000 S.o2      1 <0>        0.00000
     13 O2          1.1165   -0.0621    0.0000 O.2       1 <0>        0.00000
     14 O3          1.9415    1.3669    0.0000 O.2       1 <0>        0.00000
     15 C8          2.2435    0.2399    0.0000 C.ar      1 <0>        0.00000
     16 C9          2.9579    0.6524    0.0000 C.ar      1 <0>        0.00000
     17 C10         3.6724    0.2399    0.0000 C.ar      1 <0>        0.00000
     18 C11         3.6724   -0.5851    0.0000 C.ar      1 <0>        0.00000
     19 C12         2.9579   -0.9976    0.0000 C.ar      1 <0>        0.00000
     20 N4          2.7864   -1.8046    0.0000 N.ar      1 <0>        0.00000
     21 S2          1.9659   -1.8908    0.0000 S.3       1 <0>        0.00000
     22 N5          1.6304   -1.1372    0.0000 N.ar      1 <0>        0.00000
     23 C13         2.2435   -0.5851    0.0000 C.ar      1 <0>        0.00000
     24 C14         0.1000   -0.1726    0.0000 C.ar      1 <0>        0.00000
     25 C15         0.8145   -0.5851    0.0000 C.ar      1 <0>        0.00000
     26 C16         0.8145   -1.4101    0.0000 C.ar      1 <0>        0.00000
     27 C17         0.1000   -1.8226    0.0000 C.ar      1 <0>        0.00000
     28 C18        -0.6144   -1.4101    0.0000 C.ar      1 <0>        0.00000
     29 C19        -0.6144   -0.5851    0.0000 C.ar      1 <0>        0.00000
     30 H1          0.1000    1.2363    0.0000 H         1 <0>        0.00000
     31 H2         -1.3289    0.6524    0.0000 H         1 <0>        0.00000
     32 H3         -2.7578    0.6524    0.0000 H         1 <0>        0.00000
     33 H4         -3.4723    1.0649    0.0000 H         1 <0>        0.00000
     34 H5         -2.7578    2.3024    0.0000 H         1 <0>        0.00000
     35 H6         -2.0434    1.8899    0.0000 H         1 <0>        0.00000
     36 H7          0.8145    1.0649    0.0000 H         1 <0>        0.00000
     37 H8          2.9579    0.6524    0.0000 H         1 <0>        0.00000
     38 H9          3.6724    0.2399    0.0000 H         1 <0>        0.00000
     39 H10         3.6724   -0.5851    0.0000 H         1 <0>        0.00000
     40 H11         0.8145   -0.5851    0.0000 H         1 <0>        0.00000
     41 H12         0.8145   -1.4101    0.0000 H         1 <0>        0.00000
     42 H13         0.1000   -1.8226    0.0000 H         1 <0>        0.00000
     43 H14        -0.6144   -1.4101    0.0000 H         1 <0>        0.00000
     44 H15        -0.6144   -0.5851    0.0000 H         1 <0>        0.00000
@<TRIPOS>BOND
     1    1    2 2
     2    2    3 am
     3    2   10 1
     4    3    4 1
     5    4    5 ar
     6    4    9 ar
     7    5    6 ar
     8    6    7 ar
     9    7    8 ar
    10    8    9 ar
    11   10   11 1
    12   10   24 1
    13   10   30 1
    14   11   12 1
    15   12   13 2
    16   12   14 2
    17   12   15 1
    18   15   16 ar
    19   15   23 ar
    20   16   17 ar
    21   17   18 ar
    22   18   19 ar
    23   19   20 2
    24   19   23 ar
    25   20   21 1
    26   21   22 1
    27   22   23 2
    28   24   25 ar
    29   24   29 ar
    30   25   26 ar
    31   26   27 ar
    32   27   28 ar
    33   28   29 ar
    34    3   31 1
    35    5   32 1
    36    6   33 1
    37    8   34 1
    38    9   35 1
    39   11   36 1
    40   16   37 1
    41   17   38 1
    42   18   39 1
    43   25   40 1
    44   26   41 1
    45   27   42 1
    46   28   43 1
    47   29   44 1
@<TRIPOS>SUBSTRUCTURE
     1 <0>         1 GROUP 0 A     ****
@<TRIPOS>MOLECULE
MiniDrugBank_186
   87    89     1     0     0
SMALL
NO_CHARGES

@<TRIPOS>ATOM
      1 O1         -0.7145    4.5375    0.0000 O.3       1 <0>        0.00000
      2 C1         -0.7145    3.7125    0.0000 C.3       1 <0>        0.00000
      3 C2         -1.4289    3.3000    0.0000 C.3       1 <0>        0.00000
      4 O2         -1.4289    2.4750    0.0000 O.3       1 <0>        0.00000
      5 C3         -2.1434    2.0625    0.0000 C.3       1 <0>        0.00000
      6 O3         -2.1434    1.2375    0.0000 O.3       1 <0>        0.00000
      7 C4         -1.4289    0.8250    0.0000 C.3       1 <0>        0.00000
      8 C5         -1.4289    0.0000    0.0000 C.3       1 <0>        0.00000
      9 C6         -0.7145   -0.4125    0.0000 C.3       1 <0>        0.00000
     10 N1         -0.7145   -1.2375    0.0000 N.am      1 <0>        0.00000
     11 C7          0.0000   -1.6500    0.0000 C.2       1 <0>        0.00000
     12 O4          0.7145   -1.2375    0.0000 O.2       1 <0>        0.00000
     13 C8          0.0000   -2.4750    0.0000 C.ar      1 <0>        0.00000
     14 C9          0.7145   -2.8875    0.0000 C.ar      1 <0>        0.00000
     15 C10         0.7145   -3.7125    0.0000 C.ar      1 <0>        0.00000
     16 C11         0.0000   -4.1250    0.0000 C.ar      1 <0>        0.00000
     17 C12        -0.7145   -3.7125    0.0000 C.ar      1 <0>        0.00000
     18 C13        -1.4289   -4.1250    0.0000 C.3       1 <0>        0.00000
     19 N2         -2.1434   -3.7125    0.0000 N.2       1 <0>        0.00000
     20 N3         -2.1434   -2.8875    0.0000 N.1       1 <0>        0.00000
     21 N4         -2.1434   -2.0625    0.0000 N.1       1 <0>        0.00000
     22 C14        -0.7145   -2.8875    0.0000 C.ar      1 <0>        0.00000
     23 C15         1.4289   -4.1250    0.0000 C.2       1 <0>        0.00000
     24 O5          1.4289   -4.9500    0.0000 O.2       1 <0>        0.00000
     25 N5          2.1434   -3.7125    0.0000 N.am      1 <0>        0.00000
     26 C16         2.8579   -4.1250    0.0000 C.3       1 <0>        0.00000
     27 C17         3.5724   -3.7125    0.0000 C.3       1 <0>        0.00000
     28 C18         4.2868   -4.1250    0.0000 C.3       1 <0>        0.00000
     29 O6          5.0013   -3.7125    0.0000 O.3       1 <0>        0.00000
     30 C19         5.7158   -4.1250    0.0000 C.3       1 <0>        0.00000
     31 O7          6.4302   -3.7125    0.0000 O.3       1 <0>        0.00000
     32 C20         7.1447   -4.1250    0.0000 C.3       1 <0>        0.00000
     33 C21         7.8592   -3.7125    0.0000 C.3       1 <0>        0.00000
     34 O8          8.5737   -4.1250    0.0000 O.3       1 <0>        0.00000
     35 C22         7.1447   -4.9500    0.0000 C.3       1 <0>        0.00000
     36 O9          7.8592   -5.3625    0.0000 O.3       1 <0>        0.00000
     37 C23         6.4302   -5.3625    0.0000 C.3       1 <0>        0.00000
     38 O10         6.4302   -6.1875    0.0000 O.3       1 <0>        0.00000
     39 C24         5.7158   -4.9500    0.0000 C.3       1 <0>        0.00000
     40 O11         5.0013   -5.3625    0.0000 O.3       1 <0>        0.00000
     41 C25        -2.8579    2.4750    0.0000 C.3       1 <0>        0.00000
     42 O12        -3.5724    2.0625    0.0000 O.3       1 <0>        0.00000
     43 C26        -2.8579    3.3000    0.0000 C.3       1 <0>        0.00000
     44 O13        -3.5724    3.7125    0.0000 O.3       1 <0>        0.00000
     45 C27        -2.1434    3.7125    0.0000 C.3       1 <0>        0.00000
     46 O14        -2.1434    4.5375    0.0000 O.3       1 <0>        0.00000
     47 H1         -0.7145    4.5375    0.0000 H         1 <0>        0.00000
     48 H2         -0.7145    3.7125    0.0000 H         1 <0>        0.00000
     49 H3         -0.7145    3.7125    0.0000 H         1 <0>        0.00000
     50 H4         -1.4289    3.3000    0.0000 H         1 <0>        0.00000
     51 H5         -2.1434    2.0625    0.0000 H         1 <0>        0.00000
     52 H6         -1.4289    0.8250    0.0000 H         1 <0>        0.00000
     53 H7         -1.4289    0.8250    0.0000 H         1 <0>        0.00000
     54 H8         -1.4289    0.0000    0.0000 H         1 <0>        0.00000
     55 H9         -1.4289    0.0000    0.0000 H         1 <0>        0.00000
     56 H10        -0.7145   -0.4125    0.0000 H         1 <0>        0.00000
     57 H11        -0.7145   -0.4125    0.0000 H         1 <0>        0.00000
     58 H12        -0.7145   -1.2375    0.0000 H         1 <0>        0.00000
     59 H13         0.7145   -2.8875    0.0000 H         1 <0>        0.00000
     60 H14         0.0000   -4.1250    0.0000 H         1 <0>        0.00000
     61 H15        -1.4289   -4.1250    0.0000 H         1 <0>        0.00000
     62 H16        -1.4289   -4.1250    0.0000 H         1 <0>        0.00000
     63 H17        -0.7145   -2.8875    0.0000 H         1 <0>        0.00000
     64 H18         2.1434   -3.7125    0.0000 H         1 <0>        0.00000
     65 H19         2.8579   -4.1250    0.0000 H         1 <0>        0.00000
     66 H20         2.8579   -4.1250    0.0000 H         1 <0>        0.00000
     67 H21         3.5724   -3.7125    0.0000 H         1 <0>        0.00000
     68 H22         3.5724   -3.7125    0.0000 H         1 <0>        0.00000
     69 H23         4.2868   -4.1250    0.0000 H         1 <0>        0.00000
     70 H24         4.2868   -4.1250    0.0000 H         1 <0>        0.00000
     71 H25         5.7158   -4.1250    0.0000 H         1 <0>        0.00000
     72 H26         7.1447   -4.1250    0.0000 H         1 <0>        0.00000
     73 H27         7.8592   -3.7125    0.0000 H         1 <0>        0.00000
     74 H28         7.8592   -3.7125    0.0000 H         1 <0>        0.00000
     75 H29         8.5737   -4.1250    0.0000 H         1 <0>        0.00000
     76 H30         7.1447   -4.9500    0.0000 H         1 <0>        0.00000
     77 H31         7.8592   -5.3625    0.0000 H         1 <0>        0.00000
     78 H32         6.4302   -5.3625    0.0000 H         1 <0>        0.00000
     79 H33         6.4302   -6.1875    0.0000 H         1 <0>        0.00000
     80 H34         5.7158   -4.9500    0.0000 H         1 <0>        0.00000
     81 H35         5.0013   -5.3625    0.0000 H         1 <0>        0.00000
     82 H36        -2.8579    2.4750    0.0000 H         1 <0>        0.00000
     83 H37        -3.5724    2.0625    0.0000 H         1 <0>        0.00000
     84 H38        -2.8579    3.3000    0.0000 H         1 <0>        0.00000
     85 H39        -3.5724    3.7125    0.0000 H         1 <0>        0.00000
     86 H40        -2.1434    3.7125    0.0000 H         1 <0>        0.00000
     87 H41        -2.1434    4.5375    0.0000 H         1 <0>        0.00000
@<TRIPOS>BOND
     1    1    2 1
     2    2    3 1
     3    3    4 1
     4    4    5 1
     5    5    6 1
     6    6    7 1
     7    7    8 1
     8    8    9 1
     9    9   10 1
    10   10   11 am
    11   11   12 2
    12   11   13 1
    13   13   14 ar
    14   14   15 ar
    15   15   16 ar
    16   16   17 ar
    17   17   18 1
    18   18   19 1
    19   19   20 2
    20   20   21 2
    21   17   22 ar
    22   13   22 ar
    23   15   23 1
    24   23   24 2
    25   23   25 am
    26   25   26 1
    27   26   27 1
    28   27   28 1
    29   28   29 1
    30   29   30 1
    31   30   31 1
    32   31   32 1
    33   32   33 1
    34   33   34 1
    35   32   35 1
    36   35   36 1
    37   35   37 1
    38   37   38 1
    39   37   39 1
    40   30   39 1
    41   39   40 1
    42    5   41 1
    43   41   42 1
    44   41   43 1
    45   43   44 1
    46   43   45 1
    47    3   45 1
    48   45   46 1
    49    1   47 1
    50    2   48 1
    51    2   49 1
    52    3   50 1
    53    5   51 1
    54    7   52 1
    55    7   53 1
    56    8   54 1
    57    8   55 1
    58    9   56 1
    59    9   57 1
    60   10   58 1
    61   14   59 1
    62   16   60 1
    63   18   61 1
    64   18   62 1
    65   22   63 1
    66   25   64 1
    67   26   65 1
    68   26   66 1
    69   27   67 1
    70   27   68 1
    71   28   69 1
    72   28   70 1
    73   30   71 1
    74   32   72 1
    75   33   73 1
    76   33   74 1
    77   34   75 1
    78   35   76 1
    79   36   77 1
    80   37   78 1
    81   38   79 1
    82   39   80 1
    83   40   81 1
    84   41   82 1
    85   42   83 1
    86   43   84 1
    87   44   85 1
    88   45   86 1
    89   46   87 1
@<TRIPOS>SUBSTRUCTURE
     1 <0>         1 GROUP 0 A     ****
@<TRIPOS>MOLECULE
MiniDrugBank_187
  112   113     1     0     0
SMALL
NO_CHARGES

@<TRIPOS>ATOM
      1 C1         11.7355  -11.9464    0.0000 C.3       1 <0>        0.00000
      2 C2         11.4654  -11.1668    0.0000 C.3       1 <0>        0.00000
      3 C3         12.0055  -10.5432    0.0000 C.3       1 <0>        0.00000
      4 C4         11.7355   -9.7637    0.0000 C.3       1 <0>        0.00000
      5 C5         12.2756   -9.1400    0.0000 C.3       1 <0>        0.00000
      6 C6         12.0055   -8.3605    0.0000 C.3       1 <0>        0.00000
      7 N1         11.1954   -8.2046    0.0000 N.3       1 <0>        0.00000
      8 N2         10.9253   -7.4250    0.0000 N.3       1 <0>        0.00000
      9 C7         10.1152   -7.2691    0.0000 C.3       1 <0>        0.00000
     10 C8          9.8452   -6.4895    0.0000 C.3       1 <0>        0.00000
     11 C9         10.3852   -5.8659    0.0000 C.3       1 <0>        0.00000
     12 C10        10.1152   -5.0863    0.0000 C.3       1 <0>        0.00000
     13 C11         9.3051   -4.9304    0.0000 C.3       1 <0>        0.00000
     14 C12         9.0350   -4.1509    0.0000 C.3       1 <0>        0.00000
     15 C13         9.0350   -6.3336    0.0000 C.2       1 <0>        0.00000
     16 O1          8.4949   -6.9573    0.0000 O.2       1 <0>        0.00000
     17 N3          8.7650   -5.5541    0.0000 N.am      1 <0>        0.00000
     18 C14         7.9548   -5.3982    0.0000 C.3       1 <0>        0.00000
     19 C15         7.4148   -6.0218    0.0000 C.3       1 <0>        0.00000
     20 C16         7.6848   -6.8014    0.0000 C.3       1 <0>        0.00000
     21 C17         7.1447   -7.4250    0.0000 C.3       1 <0>        0.00000
     22 C18         7.4148   -8.2046    0.0000 C.3       1 <0>        0.00000
     23 N4          6.8747   -8.8282    0.0000 N.3       1 <0>        0.00000
     24 C19         7.6848   -4.6186    0.0000 C.2       1 <0>        0.00000
     25 O2          8.2249   -3.9950    0.0000 O.2       1 <0>        0.00000
     26 N5          6.8747   -4.4627    0.0000 N.am      1 <0>        0.00000
     27 C20         6.6046   -3.6832    0.0000 C.ar      1 <0>        0.00000
     28 C21         5.7945   -3.5272    0.0000 C.ar      1 <0>        0.00000
     29 C22         5.5244   -2.7477    0.0000 C.ar      1 <0>        0.00000
     30 C23         6.0645   -2.1240    0.0000 C.ar      1 <0>        0.00000
     31 C24         6.8747   -2.2800    0.0000 C.ar      1 <0>        0.00000
     32 C25         7.1447   -3.0595    0.0000 C.ar      1 <0>        0.00000
     33 C26        13.0857   -9.2959    0.0000 C.2       1 <0>        0.00000
     34 O3         13.6258   -8.6723    0.0000 O.2       1 <0>        0.00000
     35 N6         13.3557  -10.0755    0.0000 N.am      1 <0>        0.00000
     36 C27        14.1659  -10.2314    0.0000 C.3       1 <0>        0.00000
     37 C28        14.7060   -9.6077    0.0000 C.3       1 <0>        0.00000
     38 C29        14.4359   -8.8282    0.0000 C.3       1 <0>        0.00000
     39 C30        14.9760   -8.2046    0.0000 C.3       1 <0>        0.00000
     40 C31        14.7060   -7.4250    0.0000 C.3       1 <0>        0.00000
     41 N7         15.2460   -6.8014    0.0000 N.3       1 <0>        0.00000
     42 C32        14.4359  -11.0109    0.0000 C.2       1 <0>        0.00000
     43 O4         13.8958  -11.6346    0.0000 O.2       1 <0>        0.00000
     44 N8         15.2460  -11.1668    0.0000 N.am      1 <0>        0.00000
     45 C33        15.5161  -11.9464    0.0000 C.ar      1 <0>        0.00000
     46 C34        16.3262  -12.1023    0.0000 C.ar      1 <0>        0.00000
     47 C35        16.5963  -12.8819    0.0000 C.ar      1 <0>        0.00000
     48 C36        16.0562  -13.5055    0.0000 C.ar      1 <0>        0.00000
     49 C37        15.2460  -13.3496    0.0000 C.ar      1 <0>        0.00000
     50 C38        14.9760  -12.5700    0.0000 C.ar      1 <0>        0.00000
     51 H1         11.7355  -11.9464    0.0000 H         1 <0>        0.00000
     52 H2         11.7355  -11.9464    0.0000 H         1 <0>        0.00000
     53 H3         11.7355  -11.9464    0.0000 H         1 <0>        0.00000
     54 H4         11.4654  -11.1668    0.0000 H         1 <0>        0.00000
     55 H5         11.4654  -11.1668    0.0000 H         1 <0>        0.00000
     56 H6         12.0055  -10.5432    0.0000 H         1 <0>        0.00000
     57 H7         12.0055  -10.5432    0.0000 H         1 <0>        0.00000
     58 H8         11.7355   -9.7637    0.0000 H         1 <0>        0.00000
     59 H9         11.7355   -9.7637    0.0000 H         1 <0>        0.00000
     60 H10        12.2756   -9.1400    0.0000 H         1 <0>        0.00000
     61 H11        12.0055   -8.3605    0.0000 H         1 <0>        0.00000
     62 H12        12.0055   -8.3605    0.0000 H         1 <0>        0.00000
     63 H13        11.1954   -8.2046    0.0000 H         1 <0>        0.00000
     64 H14        10.9253   -7.4250    0.0000 H         1 <0>        0.00000
     65 H15        10.1152   -7.2691    0.0000 H         1 <0>        0.00000
     66 H16        10.1152   -7.2691    0.0000 H         1 <0>        0.00000
     67 H17         9.8452   -6.4895    0.0000 H         1 <0>        0.00000
     68 H18        10.3852   -5.8659    0.0000 H         1 <0>        0.00000
     69 H19        10.3852   -5.8659    0.0000 H         1 <0>        0.00000
     70 H20        10.1152   -5.0863    0.0000 H         1 <0>        0.00000
     71 H21        10.1152   -5.0863    0.0000 H         1 <0>        0.00000
     72 H22         9.3051   -4.9304    0.0000 H         1 <0>        0.00000
     73 H23         9.3051   -4.9304    0.0000 H         1 <0>        0.00000
     74 H24         9.0350   -4.1509    0.0000 H         1 <0>        0.00000
     75 H25         9.0350   -4.1509    0.0000 H         1 <0>        0.00000
     76 H26         9.0350   -4.1509    0.0000 H         1 <0>        0.00000
     77 H27         8.7650   -5.5541    0.0000 H         1 <0>        0.00000
     78 H28         7.9548   -5.3982    0.0000 H         1 <0>        0.00000
     79 H29         7.4148   -6.0218    0.0000 H         1 <0>        0.00000
     80 H30         7.4148   -6.0218    0.0000 H         1 <0>        0.00000
     81 H31         7.6848   -6.8014    0.0000 H         1 <0>        0.00000
     82 H32         7.6848   -6.8014    0.0000 H         1 <0>        0.00000
     83 H33         7.1447   -7.4250    0.0000 H         1 <0>        0.00000
     84 H34         7.1447   -7.4250    0.0000 H         1 <0>        0.00000
     85 H35         7.4148   -8.2046    0.0000 H         1 <0>        0.00000
     86 H36         7.4148   -8.2046    0.0000 H         1 <0>        0.00000
     87 H37         6.8747   -8.8282    0.0000 H         1 <0>        0.00000
     88 H38         6.8747   -8.8282    0.0000 H         1 <0>        0.00000
     89 H39         6.8747   -4.4627    0.0000 H         1 <0>        0.00000
     90 H40         5.7945   -3.5272    0.0000 H         1 <0>        0.00000
     91 H41         5.5244   -2.7477    0.0000 H         1 <0>        0.00000
     92 H42         6.0645   -2.1240    0.0000 H         1 <0>        0.00000
     93 H43         6.8747   -2.2800    0.0000 H         1 <0>        0.00000
     94 H44         7.1447   -3.0595    0.0000 H         1 <0>        0.00000
     95 H45        13.3557  -10.0755    0.0000 H         1 <0>        0.00000
     96 H46        14.1659  -10.2314    0.0000 H         1 <0>        0.00000
     97 H47        14.7060   -9.6077    0.0000 H         1 <0>        0.00000
     98 H48        14.7060   -9.6077    0.0000 H         1 <0>        0.00000
     99 H49        14.4359   -8.8282    0.0000 H         1 <0>        0.00000
    100 H50        14.4359   -8.8282    0.0000 H         1 <0>        0.00000
    101 H51        14.9760   -8.2046    0.0000 H         1 <0>        0.00000
    102 H52        14.9760   -8.2046    0.0000 H         1 <0>        0.00000
    103 H53        14.7060   -7.4250    0.0000 H         1 <0>        0.00000
    104 H54        14.7060   -7.4250    0.0000 H         1 <0>        0.00000
    105 H55        15.2460   -6.8014    0.0000 H         1 <0>        0.00000
    106 H56        15.2460   -6.8014    0.0000 H         1 <0>        0.00000
    107 H57        15.2460  -11.1668    0.0000 H         1 <0>        0.00000
    108 H58        16.3262  -12.1023    0.0000 H         1 <0>        0.00000
    109 H59        16.5963  -12.8819    0.0000 H         1 <0>        0.00000
    110 H60        16.0562  -13.5055    0.0000 H         1 <0>        0.00000
    111 H61        15.2460  -13.3496    0.0000 H         1 <0>        0.00000
    112 H62        14.9760  -12.5700    0.0000 H         1 <0>        0.00000
@<TRIPOS>BOND
     1    1    2 1
     2    2    3 1
     3    3    4 1
     4    4    5 1
     5    5    6 1
     6    6    7 1
     7    7    8 1
     8    8    9 1
     9    9   10 1
    10   10   11 1
    11   11   12 1
    12   12   13 1
    13   13   14 1
    14   10   15 1
    15   15   16 2
    16   15   17 am
    17   17   18 1
    18   18   19 1
    19   19   20 1
    20   20   21 1
    21   21   22 1
    22   22   23 1
    23   18   24 1
    24   24   25 2
    25   24   26 am
    26   26   27 1
    27   27   28 ar
    28   28   29 ar
    29   29   30 ar
    30   30   31 ar
    31   31   32 ar
    32   27   32 ar
    33    5   33 1
    34   33   34 2
    35   33   35 am
    36   35   36 1
    37   36   37 1
    38   37   38 1
    39   38   39 1
    40   39   40 1
    41   40   41 1
    42   36   42 1
    43   42   43 2
    44   42   44 am
    45   44   45 1
    46   45   46 ar
    47   46   47 ar
    48   47   48 ar
    49   48   49 ar
    50   49   50 ar
    51   45   50 ar
    52    1   51 1
    53    1   52 1
    54    1   53 1
    55    2   54 1
    56    2   55 1
    57    3   56 1
    58    3   57 1
    59    4   58 1
    60    4   59 1
    61    5   60 1
    62    6   61 1
    63    6   62 1
    64    7   63 1
    65    8   64 1
    66    9   65 1
    67    9   66 1
    68   10   67 1
    69   11   68 1
    70   11   69 1
    71   12   70 1
    72   12   71 1
    73   13   72 1
    74   13   73 1
    75   14   74 1
    76   14   75 1
    77   14   76 1
    78   17   77 1
    79   18   78 1
    80   19   79 1
    81   19   80 1
    82   20   81 1
    83   20   82 1
    84   21   83 1
    85   21   84 1
    86   22   85 1
    87   22   86 1
    88   23   87 1
    89   23   88 1
    90   26   89 1
    91   28   90 1
    92   29   91 1
    93   30   92 1
    94   31   93 1
    95   32   94 1
    96   35   95 1
    97   36   96 1
    98   37   97 1
    99   37   98 1
   100   38   99 1
   101   38  100 1
   102   39  101 1
   103   39  102 1
   104   40  103 1
   105   40  104 1
   106   41  105 1
   107   41  106 1
   108   44  107 1
   109   46  108 1
   110   47  109 1
   111   48  110 1
   112   49  111 1
   113   50  112 1
@<TRIPOS>SUBSTRUCTURE
     1 <0>         1 GROUP 0 A     ****
@<TRIPOS>MOLECULE
279
   35    36     1     0     0
SMALL
NO_CHARGES

@<TRIPOS>ATOM
      1 I1          4.9509    0.8250    0.0000 I         1 <0>        0.00000
      2 I2          2.0930    0.8250    0.0000 I         1 <0>        0.00000
      3 I3          6.3799    1.6500    0.0000 I         1 <0>        0.00000
      4 O1          3.5220    1.6500    0.0000 O.3       1 <0>        0.00000
      5 O2          2.0930   -3.3001    0.0000 O.3       1 <0>        0.00000
      6 O3          3.5220   -3.3001    0.0000 O.2       1 <0>        0.00000
      7 O4          6.3799    3.3001    0.0000 O.3       1 <0>        0.00000
      8 N1          2.0930   -1.6500    0.0000 N.3       1 <0>        0.00000
      9 C1          3.5220   -1.6500    0.0000 C.3       1 <0>        0.00000
     10 C2          2.8075   -2.0625    0.0000 C.3       1 <0>        0.00000
     11 C3          3.5220   -0.8250    0.0000 C.ar      1 <0>        0.00000
     12 C4          2.8075   -0.4125    0.0000 C.ar      1 <0>        0.00000
     13 C5          4.2365   -0.4125    0.0000 C.ar      1 <0>        0.00000
     14 C6          3.5220    0.8250    0.0000 C.ar      1 <0>        0.00000
     15 C7          4.2365    0.4125    0.0000 C.ar      1 <0>        0.00000
     16 C8          2.8075    0.4125    0.0000 C.ar      1 <0>        0.00000
     17 C9          2.8075   -2.8876    0.0000 C.2       1 <0>        0.00000
     18 C10         4.2365    2.0625    0.0000 C.ar      1 <0>        0.00000
     19 C11         4.9509    1.6500    0.0000 C.ar      1 <0>        0.00000
     20 C12         4.2365    2.8876    0.0000 C.ar      1 <0>        0.00000
     21 C13         5.6655    2.0625    0.0000 C.ar      1 <0>        0.00000
     22 C14         4.9509    3.3001    0.0000 C.ar      1 <0>        0.00000
     23 C15         5.6655    2.8876    0.0000 C.ar      1 <0>        0.00000
     24 H1          2.0930   -3.3001    0.0000 H         1 <0>        0.00000
     25 H2          6.3799    3.3001    0.0000 H         1 <0>        0.00000
     26 H3          2.0930   -1.6500    0.0000 H         1 <0>        0.00000
     27 H4          2.0930   -1.6500    0.0000 H         1 <0>        0.00000
     28 H5          3.5220   -1.6500    0.0000 H         1 <0>        0.00000
     29 H6          3.5220   -1.6500    0.0000 H         1 <0>        0.00000
     30 H7          2.8075   -2.0625    0.0000 H         1 <0>        0.00000
     31 H8          2.8075   -0.4125    0.0000 H         1 <0>        0.00000
     32 H9          4.2365   -0.4125    0.0000 H         1 <0>        0.00000
     33 H10         4.9509    1.6500    0.0000 H         1 <0>        0.00000
     34 H11         4.2365    2.8876    0.0000 H         1 <0>        0.00000
     35 H12         4.9509    3.3001    0.0000 H         1 <0>        0.00000
@<TRIPOS>BOND
     1    1   15 1
     2    2   16 1
     3    3   21 1
     4    4   14 1
     5    4   18 1
     6    5   17 1
     7    6   17 2
     8    7   23 1
     9    8   10 1
    10    9   10 1
    11    9   11 1
    12   10   17 1
    13   11   12 ar
    14   11   13 ar
    15   12   16 ar
    16   13   15 ar
    17   14   15 ar
    18   14   16 ar
    19   18   19 ar
    20   18   20 ar
    21   19   21 ar
    22   20   22 ar
    23   21   23 ar
    24   22   23 ar
    25    5   24 1
    26    7   25 1
    27    8   26 1
    28    8   27 1
    29    9   28 1
    30    9   29 1
    31   10   30 1
    32   12   31 1
    33   13   32 1
    34   19   33 1
    35   20   34 1
    36   22   35 1
@<TRIPOS>SUBSTRUCTURE
     1 <0>         1 GROUP 0 A     ****
@<TRIPOS>MOLECULE
PHI
   23    23     1     0     0
SMALL
NO_CHARGES

@<TRIPOS>ATOM
      1 N1         -0.0677    1.1907    0.0000 N.3       1 <0>        0.00000
      2 C1          0.6467    0.7782    0.0000 C.3       1 <0>        0.00000
      3 C2          0.6467   -0.0468    0.0000 C.3       1 <0>        0.00000
      4 C3         -0.0677   -0.4593    0.0000 C.ar      1 <0>        0.00000
      5 C4         -0.0677   -1.2843    0.0000 C.ar      1 <0>        0.00000
      6 C5         -0.7822   -0.0468    0.0000 C.ar      1 <0>        0.00000
      7 C6         -0.7822   -1.6968    0.0000 C.ar      1 <0>        0.00000
      8 C7         -1.4967   -0.4593    0.0000 C.ar      1 <0>        0.00000
      9 C8         -1.4967   -1.2843    0.0000 C.ar      1 <0>        0.00000
     10 I1         -2.2112   -1.6968    0.0000 I         1 <0>        0.00000
     11 C9          1.3612    1.1907    0.0000 C.2       1 <0>        0.00000
     12 O1          1.3612    2.0157    0.0000 O.2       1 <0>        0.00000
     13 O2          2.0757    0.7782    0.0000 O.3       1 <0>        0.00000
     14 H1          0.1410    0.4863    0.0000 H         1 <0>        0.00000
     15 H2         -0.0677    1.1907    0.0000 H         1 <0>        0.00000
     16 H3         -0.0677    1.1907    0.0000 H         1 <0>        0.00000
     17 H4          0.6467   -0.0468    0.0000 H         1 <0>        0.00000
     18 H5          0.6467   -0.0468    0.0000 H         1 <0>        0.00000
     19 H6         -0.0677   -1.2843    0.0000 H         1 <0>        0.00000
     20 H7         -0.7822   -0.0468    0.0000 H         1 <0>        0.00000
     21 H8         -0.7822   -1.6968    0.0000 H         1 <0>        0.00000
     22 H9         -1.4967   -0.4593    0.0000 H         1 <0>        0.00000
     23 H10         2.0757    0.7782    0.0000 H         1 <0>        0.00000
@<TRIPOS>BOND
     1    1    2 1
     2    2    3 1
     3    2   11 1
     4    2   14 1
     5    3    4 1
     6    4    5 ar
     7    4    6 ar
     8    5    7 ar
     9    6    8 ar
    10    7    9 ar
    11    8    9 ar
    12    9   10 1
    13   11   12 2
    14   11   13 1
    15    1   15 1
    16    1   16 1
    17    3   17 1
    18    3   18 1
    19    5   19 1
    20    6   20 1
    21    7   21 1
    22    8   22 1
    23   13   23 1
@<TRIPOS>SUBSTRUCTURE
     1 <0>         1 GROUP 0 A     ****
@<TRIPOS>MOLECULE
1168
   35    35     1     0     0
SMALL
NO_CHARGES

@<TRIPOS>ATOM
      1 O1          2.3645    2.0625    0.0000 O.2       1 <0>        0.00000
      2 N1          3.7935    2.0625    0.0000 N.am      1 <0>        0.00000
      3 N2          2.3645   -2.0625    0.0000 N.3       1 <0>        0.00000
      4 N3          2.3645   -2.8876    0.0000 N.3       1 <0>        0.00000
      5 C1          3.7935    2.8876    0.0000 C.3       1 <0>        0.00000
      6 C2          3.0791   -0.8250    0.0000 C.ar      1 <0>        0.00000
      7 C3          3.0791    0.8250    0.0000 C.ar      1 <0>        0.00000
      8 C4          3.0791    1.6500    0.0000 C.2       1 <0>        0.00000
      9 C5          3.0791   -1.6500    0.0000 C.3       1 <0>        0.00000
     10 C6          4.5080    3.3001    0.0000 C.3       1 <0>        0.00000
     11 C7          3.0791    3.3001    0.0000 C.3       1 <0>        0.00000
     12 C8          2.3645   -0.4125    0.0000 C.ar      1 <0>        0.00000
     13 C9          3.7935   -0.4125    0.0000 C.ar      1 <0>        0.00000
     14 C10         2.3645    0.4125    0.0000 C.ar      1 <0>        0.00000
     15 C11         3.7935    0.4125    0.0000 C.ar      1 <0>        0.00000
     16 C12         1.6500   -3.3001    0.0000 C.3       1 <0>        0.00000
     17 H1          3.7935    2.0625    0.0000 H         1 <0>        0.00000
     18 H2          2.3645   -2.0625    0.0000 H         1 <0>        0.00000
     19 H3          2.3645   -2.8876    0.0000 H         1 <0>        0.00000
     20 H4          3.7935    2.8876    0.0000 H         1 <0>        0.00000
     21 H5          3.0791   -1.6500    0.0000 H         1 <0>        0.00000
     22 H6          3.0791   -1.6500    0.0000 H         1 <0>        0.00000
     23 H7          4.5080    3.3001    0.0000 H         1 <0>        0.00000
     24 H8          4.5080    3.3001    0.0000 H         1 <0>        0.00000
     25 H9          4.5080    3.3001    0.0000 H         1 <0>        0.00000
     26 H10         3.0791    3.3001    0.0000 H         1 <0>        0.00000
     27 H11         3.0791    3.3001    0.0000 H         1 <0>        0.00000
     28 H12         3.0791    3.3001    0.0000 H         1 <0>        0.00000
     29 H13         2.3645   -0.4125    0.0000 H         1 <0>        0.00000
     30 H14         3.7935   -0.4125    0.0000 H         1 <0>        0.00000
     31 H15         2.3645    0.4125    0.0000 H         1 <0>        0.00000
     32 H16         3.7935    0.4125    0.0000 H         1 <0>        0.00000
     33 H17         1.6500   -3.3001    0.0000 H         1 <0>        0.00000
     34 H18         1.6500   -3.3001    0.0000 H         1 <0>        0.00000
     35 H19         1.6500   -3.3001    0.0000 H         1 <0>        0.00000
@<TRIPOS>BOND
     1    1    8 2
     2    2    5 1
     3    2    8 am
     4    3    4 1
     5    3    9 1
     6    4   16 1
     7    5   10 1
     8    5   11 1
     9    6    9 1
    10    6   12 ar
    11    6   13 ar
    12    7    8 1
    13    7   14 ar
    14    7   15 ar
    15   12   14 ar
    16   13   15 ar
    17    2   17 1
    18    3   18 1
    19    4   19 1
    20    5   20 1
    21    9   21 1
    22    9   22 1
    23   10   23 1
    24   10   24 1
    25   10   25 1
    26   11   26 1
    27   11   27 1
    28   11   28 1
    29   12   29 1
    30   13   30 1
    31   14   31 1
    32   15   32 1
    33   16   33 1
    34   16   34 1
    35   16   35 1
@<TRIPOS>SUBSTRUCTURE
     1 <0>         1 GROUP 0 A     ****
@<TRIPOS>MOLECULE
MiniDrugBank_191
   37    38     1     0     0
SMALL
NO_CHARGES

@<TRIPOS>ATOM
      1 C1          0.1067    4.7652    0.0000 C.3       1 <0>        0.00000
      2 C2         -0.6078    4.3527    0.0000 C.ar      1 <0>        0.00000
      3 C3         -0.6078    3.5277    0.0000 C.ar      1 <0>        0.00000
      4 N1         -1.3222    3.1152    0.0000 N.am      1 <0>        0.00000
      5 C4         -1.3222    2.2902    0.0000 C.3       1 <0>        0.00000
      6 C5         -0.6548    1.8053    0.0000 C.3       1 <0>        0.00000
      7 C6         -0.9097    1.0206    0.0000 C.3       1 <0>        0.00000
      8 N2         -0.4248    0.3532    0.0000 N.2       1 <0>        0.00000
      9 N3         -0.7604   -0.4005    0.0000 N.1       1 <0>        0.00000
     10 N4         -1.0959   -1.1542    0.0000 N.1       1 <0>        0.00000
     11 C7         -1.7347    1.0206    0.0000 C.3       1 <0>        0.00000
     12 C8         -2.2197    0.3532    0.0000 C.3       1 <0>        0.00000
     13 O1         -1.8841   -0.4005    0.0000 O.3       1 <0>        0.00000
     14 P1         -2.3690   -1.0679    0.0000 P.3       1 <0>        0.00000
     15 O2         -2.8539   -1.7354    0.0000 O.3       1 <0>        0.00000
     16 O3         -1.7016   -1.5528    0.0000 O.3       1 <0>        0.00000
     17 O4         -3.0365   -0.5830    0.0000 O.2       1 <0>        0.00000
     18 O5         -1.9897    1.8053    0.0000 O.3       1 <0>        0.00000
     19 C9         -2.0367    3.5277    0.0000 C.ar      1 <0>        0.00000
     20 O6         -2.7512    3.1152    0.0000 O.2       1 <0>        0.00000
     21 N5         -2.0367    4.3527    0.0000 N.am      1 <0>        0.00000
     22 C10        -1.3222    4.7652    0.0000 C.ar      1 <0>        0.00000
     23 O7         -1.3222    5.5902    0.0000 O.2       1 <0>        0.00000
     24 H1          0.1067    4.7652    0.0000 H         1 <0>        0.00000
     25 H2          0.1067    4.7652    0.0000 H         1 <0>        0.00000
     26 H3          0.1067    4.7652    0.0000 H         1 <0>        0.00000
     27 H4         -0.6078    3.5277    0.0000 H         1 <0>        0.00000
     28 H5         -1.3222    2.2902    0.0000 H         1 <0>        0.00000
     29 H6         -0.6548    1.8053    0.0000 H         1 <0>        0.00000
     30 H7         -0.6548    1.8053    0.0000 H         1 <0>        0.00000
     31 H8         -0.9097    1.0206    0.0000 H         1 <0>        0.00000
     32 H9         -1.7347    1.0206    0.0000 H         1 <0>        0.00000
     33 H10        -2.2197    0.3532    0.0000 H         1 <0>        0.00000
     34 H11        -2.2197    0.3532    0.0000 H         1 <0>        0.00000
     35 H12        -2.8539   -1.7354    0.0000 H         1 <0>        0.00000
     36 H13        -1.7016   -1.5528    0.0000 H         1 <0>        0.00000
     37 H14        -2.0367    4.3527    0.0000 H         1 <0>        0.00000
@<TRIPOS>BOND
     1    1    2 1
     2    2    3 2
     3    3    4 1
     4    4    5 1
     5    5    6 1
     6    6    7 1
     7    7    8 1
     8    8    9 2
     9    9   10 2
    10    7   11 1
    11   11   12 1
    12   12   13 1
    13   13   14 1
    14   14   15 1
    15   14   16 1
    16   14   17 2
    17   11   18 1
    18    5   18 1
    19    4   19 am
    20   19   20 2
    21   19   21 am
    22   21   22 am
    23    2   22 1
    24   22   23 2
    25    1   24 1
    26    1   25 1
    27    1   26 1
    28    3   27 1
    29    5   28 1
    30    6   29 1
    31    6   30 1
    32    7   31 1
    33   11   32 1
    34   12   33 1
    35   12   34 1
    36   15   35 1
    37   16   36 1
    38   21   37 1
@<TRIPOS>SUBSTRUCTURE
     1 <0>         1 GROUP 0 A     ****
@<TRIPOS>MOLECULE
D13
   43    46     1     0     0
SMALL
NO_CHARGES

@<TRIPOS>ATOM
      1 C1         -0.1446    0.2750    0.0000 C.ar      1 <0>        0.00000
      2 N1          0.5228   -0.2099    0.0000 N.ar      1 <0>        0.00000
      3 C2          0.2679   -0.9946    0.0000 C.ar      1 <0>        0.00000
      4 C3         -0.5571   -0.9946    0.0000 C.ar      1 <0>        0.00000
      5 N2         -0.8120   -0.2099    0.0000 N.pl3     1 <0>        0.00000
      6 C4          0.7528   -1.6620    0.0000 C.ar      1 <0>        0.00000
      7 C5          1.5733   -1.5758    0.0000 C.ar      1 <0>        0.00000
      8 C6          2.0582   -2.2432    0.0000 C.ar      1 <0>        0.00000
      9 N3          1.7227   -2.9969    0.0000 N.ar      1 <0>        0.00000
     10 C7          0.9022   -3.0831    0.0000 C.ar      1 <0>        0.00000
     11 C8          0.4173   -2.4157    0.0000 C.ar      1 <0>        0.00000
     12 C9         -1.0420   -1.6620    0.0000 C.ar      1 <0>        0.00000
     13 C10        -0.7065   -2.4157    0.0000 C.ar      1 <0>        0.00000
     14 C11        -1.1914   -3.0831    0.0000 C.ar      1 <0>        0.00000
     15 I1         -0.8558   -3.8368    0.0000 I         1 <0>        0.00000
     16 C12        -2.0119   -2.9969    0.0000 C.ar      1 <0>        0.00000
     17 C13        -2.3474   -2.2432    0.0000 C.ar      1 <0>        0.00000
     18 C14        -1.8625   -1.5758    0.0000 C.ar      1 <0>        0.00000
     19 C15        -0.1446    1.1000    0.0000 C.ar      1 <0>        0.00000
     20 C16        -0.8591    1.5125    0.0000 C.ar      1 <0>        0.00000
     21 C17        -0.8591    2.3375    0.0000 C.ar      1 <0>        0.00000
     22 C18        -0.1446    2.7500    0.0000 C.ar      1 <0>        0.00000
     23 C19         0.5699    2.3375    0.0000 C.ar      1 <0>        0.00000
     24 C20         0.5699    1.5125    0.0000 C.ar      1 <0>        0.00000
     25 S1         -0.1446    3.5750    0.0000 S.o       1 <0>        0.00000
     26 O1         -0.8591    3.9875    0.0000 O.2       1 <0>        0.00000
     27 C21         0.5699    3.9875    0.0000 C.3       1 <0>        0.00000
     28 H1         -0.8120   -0.2099    0.0000 H         1 <0>        0.00000
     29 H2          1.5733   -1.5758    0.0000 H         1 <0>        0.00000
     30 H3          2.0582   -2.2432    0.0000 H         1 <0>        0.00000
     31 H4          0.9022   -3.0831    0.0000 H         1 <0>        0.00000
     32 H5          0.4173   -2.4157    0.0000 H         1 <0>        0.00000
     33 H6         -0.7065   -2.4157    0.0000 H         1 <0>        0.00000
     34 H7         -2.0119   -2.9969    0.0000 H         1 <0>        0.00000
     35 H8         -2.3474   -2.2432    0.0000 H         1 <0>        0.00000
     36 H9         -1.8625   -1.5758    0.0000 H         1 <0>        0.00000
     37 H10        -0.8591    1.5125    0.0000 H         1 <0>        0.00000
     38 H11        -0.8591    2.3375    0.0000 H         1 <0>        0.00000
     39 H12         0.5699    2.3375    0.0000 H         1 <0>        0.00000
     40 H13         0.5699    1.5125    0.0000 H         1 <0>        0.00000
     41 H14         0.5699    3.9875    0.0000 H         1 <0>        0.00000
     42 H15         0.5699    3.9875    0.0000 H         1 <0>        0.00000
     43 H16         0.5699    3.9875    0.0000 H         1 <0>        0.00000
@<TRIPOS>BOND
     1    1    2 2
     2    1    5 1
     3    1   19 1
     4    2    3 1
     5    3    4 2
     6    3    6 1
     7    4    5 1
     8    4   12 1
     9    6    7 ar
    10    6   11 ar
    11    7    8 ar
    12    8    9 ar
    13    9   10 ar
    14   10   11 ar
    15   12   13 ar
    16   12   18 ar
    17   13   14 ar
    18   14   15 1
    19   14   16 ar
    20   16   17 ar
    21   17   18 ar
    22   19   20 ar
    23   19   24 ar
    24   20   21 ar
    25   21   22 ar
    26   22   23 ar
    27   22   25 1
    28   23   24 ar
    29   25   26 2
    30   25   27 1
    31    5   28 1
    32    7   29 1
    33    8   30 1
    34   10   31 1
    35   11   32 1
    36   13   33 1
    37   16   34 1
    38   17   35 1
    39   18   36 1
    40   20   37 1
    41   21   38 1
    42   23   39 1
    43   24   40 1
    44   27   41 1
    45   27   42 1
    46   27   43 1
@<TRIPOS>SUBSTRUCTURE
     1 <0>         1 GROUP 0 A     ****
@<TRIPOS>MOLECULE
MiniDrugBank_193
   28    29     1     0     0
SMALL
NO_CHARGES

@<TRIPOS>ATOM
      1 O1         -3.1034   -0.6979    0.0000 O.3       1 <0>        0.00000
      2 C1         -2.6909    0.0165    0.0000 C.2       1 <0>        0.00000
      3 O2         -3.1034    0.7310    0.0000 O.2       1 <0>        0.00000
      4 C2         -1.8659    0.0165    0.0000 C.2       1 <0>        0.00000
      5 O3         -1.4534    0.7310    0.0000 O.2       1 <0>        0.00000
      6 N1         -1.4534   -0.6979    0.0000 N.am      1 <0>        0.00000
      7 C3         -0.6284   -0.6979    0.0000 C.ar      1 <0>        0.00000
      8 C4         -0.1435   -1.3654    0.0000 C.ar      1 <0>        0.00000
      9 C5         -0.3984   -2.1500    0.0000 C.2       1 <0>        0.00000
     10 O4          0.1536   -2.7631    0.0000 O.3       1 <0>        0.00000
     11 O5         -1.2054   -2.3215    0.0000 O.2       1 <0>        0.00000
     12 C6          0.6411   -1.1104    0.0000 C.ar      1 <0>        0.00000
     13 C7          0.6411   -0.2854    0.0000 C.ar      1 <0>        0.00000
     14 C8          1.3556    0.1271    0.0000 C.3       1 <0>        0.00000
     15 N2          2.0701   -0.2854    0.0000 N.3       1 <0>        0.00000
     16 C9          2.0701   -1.1104    0.0000 C.3       1 <0>        0.00000
     17 C10         1.3556   -1.5229    0.0000 C.3       1 <0>        0.00000
     18 S1         -0.1435   -0.0305    0.0000 S.3       1 <0>        0.00000
     19 H1         -3.1034   -0.6979    0.0000 H         1 <0>        0.00000
     20 H2         -1.4534   -0.6979    0.0000 H         1 <0>        0.00000
     21 H3          0.1536   -2.7631    0.0000 H         1 <0>        0.00000
     22 H4          1.3556    0.1271    0.0000 H         1 <0>        0.00000
     23 H5          1.3556    0.1271    0.0000 H         1 <0>        0.00000
     24 H6          2.0701   -0.2854    0.0000 H         1 <0>        0.00000
     25 H7          2.0701   -1.1104    0.0000 H         1 <0>        0.00000
     26 H8          2.0701   -1.1104    0.0000 H         1 <0>        0.00000
     27 H9          1.3556   -1.5229    0.0000 H         1 <0>        0.00000
     28 H10         1.3556   -1.5229    0.0000 H         1 <0>        0.00000
@<TRIPOS>BOND
     1    1    2 1
     2    2    3 2
     3    2    4 1
     4    4    5 2
     5    4    6 am
     6    6    7 1
     7    7    8 2
     8    8    9 1
     9    9   10 1
    10    9   11 2
    11    8   12 1
    12   12   13 2
    13   13   14 1
    14   14   15 1
    15   15   16 1
    16   16   17 1
    17   12   17 1
    18   13   18 1
    19    7   18 1
    20    1   19 1
    21    6   20 1
    22   10   21 1
    23   14   22 1
    24   14   23 1
    25   15   24 1
    26   16   25 1
    27   16   26 1
    28   17   27 1
    29   17   28 1
@<TRIPOS>SUBSTRUCTURE
     1 <0>         1 GROUP 0 A     ****
@<TRIPOS>MOLECULE
1187
   51    51     1     0     0
SMALL
NO_CHARGES

@<TRIPOS>ATOM
      1 I1          1.6500   -3.3001    0.0000 I         1 <0>        0.00000
      2 O1          6.6515    3.7126    0.0000 O.3       1 <0>        0.00000
      3 O2          7.3659    2.4751    0.0000 O.2       1 <0>        0.00000
      4 C1          3.7935   -1.2375    0.0000 C.3       1 <0>        0.00000
      5 C2          3.7935   -2.0625    0.0000 C.3       1 <0>        0.00000
      6 C3          4.5080   -0.8250    0.0000 C.3       1 <0>        0.00000
      7 C4          3.0791   -2.4751    0.0000 C.3       1 <0>        0.00000
      8 C5          4.5080    0.0000    0.0000 C.3       1 <0>        0.00000
      9 C6          5.2224    0.4125    0.0000 C.3       1 <0>        0.00000
     10 C7          5.2224    1.2375    0.0000 C.3       1 <0>        0.00000
     11 C8          3.0791   -3.3001    0.0000 C.ar      1 <0>        0.00000
     12 C9          5.9370    1.6500    0.0000 C.3       1 <0>        0.00000
     13 C10         2.3645   -2.0625    0.0000 C.3       1 <0>        0.00000
     14 C11         5.9370    2.4751    0.0000 C.3       1 <0>        0.00000
     15 C12         2.3645   -3.7126    0.0000 C.ar      1 <0>        0.00000
     16 C13         3.7935   -3.7126    0.0000 C.ar      1 <0>        0.00000
     17 C14         2.3645   -4.5376    0.0000 C.ar      1 <0>        0.00000
     18 C15         3.7935   -4.5376    0.0000 C.ar      1 <0>        0.00000
     19 C16         6.6515    2.8876    0.0000 C.2       1 <0>        0.00000
     20 C17         3.0791   -4.9501    0.0000 C.ar      1 <0>        0.00000
     21 C18         7.3659    4.1251    0.0000 C.3       1 <0>        0.00000
     22 C19         7.3659    4.9501    0.0000 C.3       1 <0>        0.00000
     23 H1          3.7935   -1.2375    0.0000 H         1 <0>        0.00000
     24 H2          3.7935   -1.2375    0.0000 H         1 <0>        0.00000
     25 H3          3.7935   -2.0625    0.0000 H         1 <0>        0.00000
     26 H4          3.7935   -2.0625    0.0000 H         1 <0>        0.00000
     27 H5          4.5080   -0.8250    0.0000 H         1 <0>        0.00000
     28 H6          4.5080   -0.8250    0.0000 H         1 <0>        0.00000
     29 H7          3.0791   -2.4751    0.0000 H         1 <0>        0.00000
     30 H8          4.5080    0.0000    0.0000 H         1 <0>        0.00000
     31 H9          4.5080    0.0000    0.0000 H         1 <0>        0.00000
     32 H10         5.2224    0.4125    0.0000 H         1 <0>        0.00000
     33 H11         5.2224    0.4125    0.0000 H         1 <0>        0.00000
     34 H12         5.2224    1.2375    0.0000 H         1 <0>        0.00000
     35 H13         5.2224    1.2375    0.0000 H         1 <0>        0.00000
     36 H14         5.9370    1.6500    0.0000 H         1 <0>        0.00000
     37 H15         5.9370    1.6500    0.0000 H         1 <0>        0.00000
     38 H16         2.3645   -2.0625    0.0000 H         1 <0>        0.00000
     39 H17         2.3645   -2.0625    0.0000 H         1 <0>        0.00000
     40 H18         2.3645   -2.0625    0.0000 H         1 <0>        0.00000
     41 H19         5.9370    2.4751    0.0000 H         1 <0>        0.00000
     42 H20         5.9370    2.4751    0.0000 H         1 <0>        0.00000
     43 H21         3.7935   -3.7126    0.0000 H         1 <0>        0.00000
     44 H22         2.3645   -4.5376    0.0000 H         1 <0>        0.00000
     45 H23         3.7935   -4.5376    0.0000 H         1 <0>        0.00000
     46 H24         3.0791   -4.9501    0.0000 H         1 <0>        0.00000
     47 H25         7.3659    4.1251    0.0000 H         1 <0>        0.00000
     48 H26         7.3659    4.1251    0.0000 H         1 <0>        0.00000
     49 H27         7.3659    4.9501    0.0000 H         1 <0>        0.00000
     50 H28         7.3659    4.9501    0.0000 H         1 <0>        0.00000
     51 H29         7.3659    4.9501    0.0000 H         1 <0>        0.00000
@<TRIPOS>BOND
     1    1   15 1
     2    2   19 1
     3    2   21 1
     4    3   19 2
     5    4    5 1
     6    4    6 1
     7    5    7 1
     8    6    8 1
     9    7   11 1
    10    7   13 1
    11    8    9 1
    12    9   10 1
    13   10   12 1
    14   11   15 ar
    15   11   16 ar
    16   12   14 1
    17   14   19 1
    18   15   17 ar
    19   16   18 ar
    20   17   20 ar
    21   18   20 ar
    22   21   22 1
    23    4   23 1
    24    4   24 1
    25    5   25 1
    26    5   26 1
    27    6   27 1
    28    6   28 1
    29    7   29 1
    30    8   30 1
    31    8   31 1
    32    9   32 1
    33    9   33 1
    34   10   34 1
    35   10   35 1
    36   12   36 1
    37   12   37 1
    38   13   38 1
    39   13   39 1
    40   13   40 1
    41   14   41 1
    42   14   42 1
    43   16   43 1
    44   17   44 1
    45   18   45 1
    46   20   46 1
    47   21   47 1
    48   21   48 1
    49   22   49 1
    50   22   50 1
    51   22   51 1
@<TRIPOS>SUBSTRUCTURE
     1 <0>         1 GROUP 0 A     ****
@<TRIPOS>MOLECULE
1189
   12    11     1     0     0
SMALL
NO_CHARGES

@<TRIPOS>ATOM
      1 F1          3.0791    0.9760    0.0000 F         1 <0>        0.00000
      2 F2          1.6500   -0.6740    0.0000 F         1 <0>        0.00000
      3 F3          1.9520    0.4529    0.0000 F         1 <0>        0.00000
      4 F4          2.7770   -0.9760    0.0000 F         1 <0>        0.00000
      5 F5          5.2224   -0.2615    0.0000 F         1 <0>        0.00000
      6 F6          4.5080    0.9760    0.0000 F         1 <0>        0.00000
      7 O1          3.7935   -0.2615    0.0000 O.3       1 <0>        0.00000
      8 C1          3.0791    0.1510    0.0000 C.3       1 <0>        0.00000
      9 C2          2.3645   -0.2615    0.0000 C.3       1 <0>        0.00000
     10 C3          4.5080    0.1510    0.0000 C.3       1 <0>        0.00000
     11 H1          3.0791    0.1510    0.0000 H         1 <0>        0.00000
     12 H2          4.5080    0.1510    0.0000 H         1 <0>        0.00000
@<TRIPOS>BOND
     1    1    8 1
     2    2    9 1
     3    3    9 1
     4    4    9 1
     5    5   10 1
     6    6   10 1
     7    7    8 1
     8    7   10 1
     9    8    9 1
    10    8   11 1
    11   10   12 1
@<TRIPOS>SUBSTRUCTURE
     1 <0>         1 GROUP 0 A     ****
@<TRIPOS>MOLECULE
D92
   58    62     1     0     0
SMALL
NO_CHARGES

@<TRIPOS>ATOM
      1 Cl1         0.0548   -4.8527    0.0000 Cl        1 <0>        0.00000
      2 C1          0.0548   -4.0277    0.0000 C.ar      1 <0>        0.00000
      3 C2          0.7692   -3.6152    0.0000 C.ar      1 <0>        0.00000
      4 C3          0.7692   -2.7902    0.0000 C.ar      1 <0>        0.00000
      5 C4          0.0548   -2.3777    0.0000 C.ar      1 <0>        0.00000
      6 N1         -0.1168   -1.5707    0.0000 N.pl3     1 <0>        0.00000
      7 C5         -0.6597   -3.6152    0.0000 C.ar      1 <0>        0.00000
      8 C6         -0.6597   -2.7902    0.0000 C.ar      1 <0>        0.00000
      9 C7         -1.2728   -2.2382    0.0000 C.ar      1 <0>        0.00000
     10 C8         -0.9372   -1.4845    0.0000 C.ar      1 <0>        0.00000
     11 C9         -1.3497   -0.7700    0.0000 C.2       1 <0>        0.00000
     12 O1         -2.1747   -0.7700    0.0000 O.2       1 <0>        0.00000
     13 N2         -0.9372   -0.0556    0.0000 N.am      1 <0>        0.00000
     14 C10        -1.3497    0.6589    0.0000 C.3       1 <0>        0.00000
     15 C11        -2.1747    0.6589    0.0000 C.3       1 <0>        0.00000
     16 C12        -2.5872    1.3734    0.0000 C.3       1 <0>        0.00000
     17 C13        -2.1747    2.0879    0.0000 C.3       1 <0>        0.00000
     18 C14        -1.3497    2.0879    0.0000 C.3       1 <0>        0.00000
     19 C15        -0.9372    1.3734    0.0000 C.3       1 <0>        0.00000
     20 N3         -0.1122    1.3734    0.0000 N.am      1 <0>        0.00000
     21 C16         0.3003    2.0879    0.0000 C.2       1 <0>        0.00000
     22 O2         -0.1122    2.8023    0.0000 O.2       1 <0>        0.00000
     23 C17         1.1253    2.0879    0.0000 C.ar      1 <0>        0.00000
     24 S1          1.6102    2.7553    0.0000 S.3       1 <0>        0.00000
     25 C18         2.3948    2.5004    0.0000 C.ar      1 <0>        0.00000
     26 C19         3.1093    2.9129    0.0000 C.3       1 <0>        0.00000
     27 N4          3.8237    2.5004    0.0000 N.3       1 <0>        0.00000
     28 C20         4.5382    2.9129    0.0000 C.3       1 <0>        0.00000
     29 C21         3.8237    1.6754    0.0000 C.3       1 <0>        0.00000
     30 C22         3.1093    1.2629    0.0000 C.3       1 <0>        0.00000
     31 C23         2.3948    1.6754    0.0000 C.ar      1 <0>        0.00000
     32 N5          1.6102    1.4204    0.0000 N.ar      1 <0>        0.00000
     33 H1         -1.6417    0.1532    0.0000 H         1 <0>        0.00000
     34 H2         -0.6453    0.8677    0.0000 H         1 <0>        0.00000
     35 H3          0.7692   -3.6152    0.0000 H         1 <0>        0.00000
     36 H4          0.7692   -2.7902    0.0000 H         1 <0>        0.00000
     37 H5         -0.1168   -1.5707    0.0000 H         1 <0>        0.00000
     38 H6         -0.6597   -3.6152    0.0000 H         1 <0>        0.00000
     39 H7         -1.2728   -2.2382    0.0000 H         1 <0>        0.00000
     40 H8         -0.9372   -0.0556    0.0000 H         1 <0>        0.00000
     41 H9         -2.1747    0.6589    0.0000 H         1 <0>        0.00000
     42 H10        -2.1747    0.6589    0.0000 H         1 <0>        0.00000
     43 H11        -2.5872    1.3734    0.0000 H         1 <0>        0.00000
     44 H12        -2.5872    1.3734    0.0000 H         1 <0>        0.00000
     45 H13        -2.1747    2.0879    0.0000 H         1 <0>        0.00000
     46 H14        -2.1747    2.0879    0.0000 H         1 <0>        0.00000
     47 H15        -1.3497    2.0879    0.0000 H         1 <0>        0.00000
     48 H16        -1.3497    2.0879    0.0000 H         1 <0>        0.00000
     49 H17        -0.1122    1.3734    0.0000 H         1 <0>        0.00000
     50 H18         3.1093    2.9129    0.0000 H         1 <0>        0.00000
     51 H19         3.1093    2.9129    0.0000 H         1 <0>        0.00000
     52 H20         4.5382    2.9129    0.0000 H         1 <0>        0.00000
     53 H21         4.5382    2.9129    0.0000 H         1 <0>        0.00000
     54 H22         4.5382    2.9129    0.0000 H         1 <0>        0.00000
     55 H23         3.8237    1.6754    0.0000 H         1 <0>        0.00000
     56 H24         3.8237    1.6754    0.0000 H         1 <0>        0.00000
     57 H25         3.1093    1.2629    0.0000 H         1 <0>        0.00000
     58 H26         3.1093    1.2629    0.0000 H         1 <0>        0.00000
@<TRIPOS>BOND
     1    1    2 1
     2    2    7 ar
     3    2    3 ar
     4    3    4 ar
     5    4    5 ar
     6    5    8 ar
     7    5    6 1
     8    6   10 1
     9    7    8 ar
    10    8    9 1
    11    9   10 2
    12   10   11 1
    13   11   13 am
    14   11   12 2
    15   13   14 1
    16   14   15 1
    17   14   19 1
    18   14   33 1
    19   15   16 1
    20   16   17 1
    21   17   18 1
    22   18   19 1
    23   19   20 1
    24   19   34 1
    25   20   21 am
    26   21   23 1
    27   21   22 2
    28   23   32 2
    29   23   24 1
    30   24   25 1
    31   25   26 1
    32   25   31 2
    33   26   27 1
    34   27   28 1
    35   27   29 1
    36   29   30 1
    37   30   31 1
    38   31   32 1
    39    3   35 1
    40    4   36 1
    41    6   37 1
    42    7   38 1
    43    9   39 1
    44   13   40 1
    45   15   41 1
    46   15   42 1
    47   16   43 1
    48   16   44 1
    49   17   45 1
    50   17   46 1
    51   18   47 1
    52   18   48 1
    53   20   49 1
    54   26   50 1
    55   26   51 1
    56   28   52 1
    57   28   53 1
    58   28   54 1
    59   29   55 1
    60   29   56 1
    61   30   57 1
    62   30   58 1
@<TRIPOS>SUBSTRUCTURE
     1 <0>         1 GROUP 0 A     ****
@<TRIPOS>MOLECULE
D93
   58    62     1     0     0
SMALL
NO_CHARGES

@<TRIPOS>ATOM
      1 Cl1         2.8136    4.6536    0.0000 Cl        1 <0>        0.00000
      2 C1          2.0992    4.2411    0.0000 C.ar      1 <0>        0.00000
      3 C2          1.3847    4.6536    0.0000 C.ar      1 <0>        0.00000
      4 C3          0.6702    4.2411    0.0000 C.ar      1 <0>        0.00000
      5 C4          0.6702    3.4161    0.0000 C.ar      1 <0>        0.00000
      6 N1          0.0571    2.8641    0.0000 N.pl3     1 <0>        0.00000
      7 C5          2.0992    3.4161    0.0000 C.ar      1 <0>        0.00000
      8 C6          1.3847    3.0036    0.0000 C.ar      1 <0>        0.00000
      9 C7          1.2132    2.1967    0.0000 C.ar      1 <0>        0.00000
     10 C8          0.3927    2.1104    0.0000 C.ar      1 <0>        0.00000
     11 C9         -0.0198    1.3960    0.0000 C.2       1 <0>        0.00000
     12 O1         -0.8448    1.3960    0.0000 O.2       1 <0>        0.00000
     13 N2          0.3927    0.6815    0.0000 N.am      1 <0>        0.00000
     14 C10        -0.0198   -0.0330    0.0000 C.3       1 <0>        0.00000
     15 C11        -0.8448   -0.0330    0.0000 C.3       1 <0>        0.00000
     16 C12        -1.2573   -0.7475    0.0000 C.3       1 <0>        0.00000
     17 C13        -0.8448   -1.4619    0.0000 C.3       1 <0>        0.00000
     18 C14        -0.0198   -1.4619    0.0000 C.3       1 <0>        0.00000
     19 C15         0.3927   -0.7475    0.0000 C.3       1 <0>        0.00000
     20 N3          1.2177   -0.7475    0.0000 N.am      1 <0>        0.00000
     21 C16         1.6302   -0.0330    0.0000 C.2       1 <0>        0.00000
     22 O2          1.2177    0.6815    0.0000 O.2       1 <0>        0.00000
     23 C17         2.4552   -0.0330    0.0000 C.ar      1 <0>        0.00000
     24 S1          2.9401    0.6345    0.0000 S.3       1 <0>        0.00000
     25 C18         3.7247    0.3795    0.0000 C.ar      1 <0>        0.00000
     26 C19         4.4392    0.7920    0.0000 C.3       1 <0>        0.00000
     27 N4          5.1537    0.3795    0.0000 N.3       1 <0>        0.00000
     28 C20         5.8681    0.7920    0.0000 C.3       1 <0>        0.00000
     29 C21         5.1537   -0.4455    0.0000 C.3       1 <0>        0.00000
     30 C22         4.4392   -0.8580    0.0000 C.3       1 <0>        0.00000
     31 C23         3.7247   -0.4455    0.0000 C.ar      1 <0>        0.00000
     32 N5          2.9401   -0.7004    0.0000 N.ar      1 <0>        0.00000
     33 H1          0.5289    0.1667    0.0000 H         1 <0>        0.00000
     34 H2          0.8400   -0.3721    0.0000 H         1 <0>        0.00000
     35 H3          1.3847    4.6536    0.0000 H         1 <0>        0.00000
     36 H4          0.6702    4.2411    0.0000 H         1 <0>        0.00000
     37 H5          0.0571    2.8641    0.0000 H         1 <0>        0.00000
     38 H6          2.0992    3.4161    0.0000 H         1 <0>        0.00000
     39 H7          1.2132    2.1967    0.0000 H         1 <0>        0.00000
     40 H8          0.3927    0.6815    0.0000 H         1 <0>        0.00000
     41 H9         -0.8448   -0.0330    0.0000 H         1 <0>        0.00000
     42 H10        -0.8448   -0.0330    0.0000 H         1 <0>        0.00000
     43 H11        -1.2573   -0.7475    0.0000 H         1 <0>        0.00000
     44 H12        -1.2573   -0.7475    0.0000 H         1 <0>        0.00000
     45 H13        -0.8448   -1.4619    0.0000 H         1 <0>        0.00000
     46 H14        -0.8448   -1.4619    0.0000 H         1 <0>        0.00000
     47 H15        -0.0198   -1.4619    0.0000 H         1 <0>        0.00000
     48 H16        -0.0198   -1.4619    0.0000 H         1 <0>        0.00000
     49 H17         1.2177   -0.7475    0.0000 H         1 <0>        0.00000
     50 H18         4.4392    0.7920    0.0000 H         1 <0>        0.00000
     51 H19         4.4392    0.7920    0.0000 H         1 <0>        0.00000
     52 H20         5.8681    0.7920    0.0000 H         1 <0>        0.00000
     53 H21         5.8681    0.7920    0.0000 H         1 <0>        0.00000
     54 H22         5.8681    0.7920    0.0000 H         1 <0>        0.00000
     55 H23         5.1537   -0.4455    0.0000 H         1 <0>        0.00000
     56 H24         5.1537   -0.4455    0.0000 H         1 <0>        0.00000
     57 H25         4.4392   -0.8580    0.0000 H         1 <0>        0.00000
     58 H26         4.4392   -0.8580    0.0000 H         1 <0>        0.00000
@<TRIPOS>BOND
     1    1    2 1
     2    2    7 ar
     3    2    3 ar
     4    3    4 ar
     5    4    5 ar
     6    5    8 ar
     7    5    6 1
     8    6   10 1
     9    7    8 ar
    10    8    9 1
    11    9   10 2
    12   10   11 1
    13   11   12 2
    14   11   13 am
    15   13   14 1
    16   14   19 1
    17   14   15 1
    18   14   33 1
    19   15   16 1
    20   16   17 1
    21   17   18 1
    22   18   19 1
    23   19   20 1
    24   19   34 1
    25   20   21 am
    26   21   23 1
    27   21   22 2
    28   23   32 2
    29   23   24 1
    30   24   25 1
    31   25   26 1
    32   25   31 2
    33   26   27 1
    34   27   28 1
    35   27   29 1
    36   29   30 1
    37   30   31 1
    38   31   32 1
    39    3   35 1
    40    4   36 1
    41    6   37 1
    42    7   38 1
    43    9   39 1
    44   13   40 1
    45   15   41 1
    46   15   42 1
    47   16   43 1
    48   16   44 1
    49   17   45 1
    50   17   46 1
    51   18   47 1
    52   18   48 1
    53   20   49 1
    54   26   50 1
    55   26   51 1
    56   28   52 1
    57   28   53 1
    58   28   54 1
    59   29   55 1
    60   29   56 1
    61   30   57 1
    62   30   58 1
@<TRIPOS>SUBSTRUCTURE
     1 <0>         1 GROUP 0 A     ****
@<TRIPOS>MOLECULE
MiniDrugBank_198
   20    20     1     0     0
SMALL
NO_CHARGES

@<TRIPOS>ATOM
      1 C1         -0.1467    3.1768    0.0000 C.3       1 <0>        0.00000
      2 C2         -0.1467    2.3518    0.0000 C.3       1 <0>        0.00000
      3 O1         -0.8612    1.9393    0.0000 O.3       1 <0>        0.00000
      4 C3          0.5678    1.9393    0.0000 C.3       1 <0>        0.00000
      5 N1          1.2822    2.3518    0.0000 N.3       1 <0>        0.00000
      6 C4          0.5678    1.1143    0.0000 C.ar      1 <0>        0.00000
      7 N2          1.2352    0.6294    0.0000 N.ar      1 <0>        0.00000
      8 C5          0.9803   -0.1553    0.0000 C.ar      1 <0>        0.00000
      9 C6          0.1553   -0.1553    0.0000 C.ar      1 <0>        0.00000
     10 S1         -0.0997    0.6294    0.0000 S.3       1 <0>        0.00000
     11 H1         -0.1467    3.1768    0.0000 H         1 <0>        0.00000
     12 H2         -0.1467    3.1768    0.0000 H         1 <0>        0.00000
     13 H3         -0.1467    3.1768    0.0000 H         1 <0>        0.00000
     14 H4         -0.1467    2.3518    0.0000 H         1 <0>        0.00000
     15 H5         -0.8612    1.9393    0.0000 H         1 <0>        0.00000
     16 H6          0.5678    1.9393    0.0000 H         1 <0>        0.00000
     17 H7          1.2822    2.3518    0.0000 H         1 <0>        0.00000
     18 H8          1.2822    2.3518    0.0000 H         1 <0>        0.00000
     19 H9          0.9803   -0.1553    0.0000 H         1 <0>        0.00000
     20 H10         0.1553   -0.1553    0.0000 H         1 <0>        0.00000
@<TRIPOS>BOND
     1    1    2 1
     2    2    3 1
     3    2    4 1
     4    4    5 1
     5    4    6 1
     6    6    7 2
     7    7    8 1
     8    8    9 2
     9    9   10 1
    10    6   10 1
    11    1   11 1
    12    1   12 1
    13    1   13 1
    14    2   14 1
    15    3   15 1
    16    4   16 1
    17    5   17 1
    18    5   18 1
    19    8   19 1
    20    9   20 1
@<TRIPOS>SUBSTRUCTURE
     1 <0>         1 GROUP 0 A     ****
@<TRIPOS>MOLECULE
BHY
   56    57     1     0     0
SMALL
NO_CHARGES

@<TRIPOS>ATOM
      1 N1         -3.6987   -1.9369    0.0000 N.pl3     1 <0>        0.00000
      2 C1         -0.8409   -1.9369    0.0000 C.ar      1 <0>        0.00000
      3 N2          3.4460    2.1881    0.0000 N.pl3     1 <0>        0.00000
      4 C2         -0.1264   -0.6994    0.0000 C.ar      1 <0>        0.00000
      5 O1         -5.1277   -1.1119    0.0000 O.2       1 <0>        0.00000
      6 C3         -1.5553   -0.6994    0.0000 C.ar      1 <0>        0.00000
      7 C4          2.0170    0.5381    0.0000 C.ar      1 <0>        0.00000
      8 C5         -1.5553   -1.5244    0.0000 C.ar      1 <0>        0.00000
      9 O2          3.4460    3.8381    0.0000 O.2       1 <0>        0.00000
     10 S1          3.4460    3.0131    0.0000 S.o2      1 <0>        0.00000
     11 O3          4.2710    3.0131    0.0000 O.2       1 <0>        0.00000
     12 S2         -4.4132   -1.5244    0.0000 S.o2      1 <0>        0.00000
     13 C6         -0.1264   -1.5244    0.0000 C.ar      1 <0>        0.00000
     14 O4         -4.8257   -2.2388    0.0000 O.2       1 <0>        0.00000
     15 C7         -0.8409   -0.2869    0.0000 C.ar      1 <0>        0.00000
     16 C8          2.0170   -0.2869    0.0000 C.ar      1 <0>        0.00000
     17 C9          1.3026   -0.6994    0.0000 C.ar      1 <0>        0.00000
     18 C10         0.5881   -0.2869    0.0000 C.ar      1 <0>        0.00000
     19 C11         0.5881    0.5381    0.0000 C.ar      1 <0>        0.00000
     20 C12         1.3026    0.9506    0.0000 C.ar      1 <0>        0.00000
     21 C13         2.7315    0.9506    0.0000 C.3       1 <0>        0.00000
     22 C14        -2.2698   -1.9369    0.0000 C.3       1 <0>        0.00000
     23 C15        -2.9843   -1.5244    0.0000 C.3       1 <0>        0.00000
     24 C16        -2.2698   -2.7619    0.0000 C.3       1 <0>        0.00000
     25 C17         3.4460    0.5381    0.0000 C.3       1 <0>        0.00000
     26 C18         2.7315    1.7756    0.0000 C.3       1 <0>        0.00000
     27 C19         2.6210    3.0131    0.0000 C.3       1 <0>        0.00000
     28 C20        -4.0007   -0.8099    0.0000 C.3       1 <0>        0.00000
     29 H1          2.7315    0.3667    0.0000 H         1 <0>        0.00000
     30 H2         -2.2698   -1.3529    0.0000 H         1 <0>        0.00000
     31 H3         -3.6987   -1.9369    0.0000 H         1 <0>        0.00000
     32 H4         -0.8409   -1.9369    0.0000 H         1 <0>        0.00000
     33 H5          3.4460    2.1881    0.0000 H         1 <0>        0.00000
     34 H6         -1.5553   -0.6994    0.0000 H         1 <0>        0.00000
     35 H7         -0.1264   -1.5244    0.0000 H         1 <0>        0.00000
     36 H8         -0.8409   -0.2869    0.0000 H         1 <0>        0.00000
     37 H9          2.0170   -0.2869    0.0000 H         1 <0>        0.00000
     38 H10         1.3026   -0.6994    0.0000 H         1 <0>        0.00000
     39 H11         0.5881    0.5381    0.0000 H         1 <0>        0.00000
     40 H12         1.3026    0.9506    0.0000 H         1 <0>        0.00000
     41 H13        -2.9843   -1.5244    0.0000 H         1 <0>        0.00000
     42 H14        -2.9843   -1.5244    0.0000 H         1 <0>        0.00000
     43 H15        -2.2698   -2.7619    0.0000 H         1 <0>        0.00000
     44 H16        -2.2698   -2.7619    0.0000 H         1 <0>        0.00000
     45 H17        -2.2698   -2.7619    0.0000 H         1 <0>        0.00000
     46 H18         3.4460    0.5381    0.0000 H         1 <0>        0.00000
     47 H19         3.4460    0.5381    0.0000 H         1 <0>        0.00000
     48 H20         3.4460    0.5381    0.0000 H         1 <0>        0.00000
     49 H21         2.7315    1.7756    0.0000 H         1 <0>        0.00000
     50 H22         2.7315    1.7756    0.0000 H         1 <0>        0.00000
     51 H23         2.6210    3.0131    0.0000 H         1 <0>        0.00000
     52 H24         2.6210    3.0131    0.0000 H         1 <0>        0.00000
     53 H25         2.6210    3.0131    0.0000 H         1 <0>        0.00000
     54 H26        -4.0007   -0.8099    0.0000 H         1 <0>        0.00000
     55 H27        -4.0007   -0.8099    0.0000 H         1 <0>        0.00000
     56 H28        -4.0007   -0.8099    0.0000 H         1 <0>        0.00000
@<TRIPOS>BOND
     1    1   12 1
     2    1   23 1
     3    2    8 ar
     4    2   13 ar
     5    3   10 1
     6    3   26 1
     7    4   13 ar
     8    4   15 ar
     9    4   18 1
    10    5   12 2
    11    6    8 ar
    12    6   15 ar
    13    7   16 ar
    14    7   20 ar
    15    7   21 1
    16    8   22 1
    17    9   10 2
    18   10   11 2
    19   10   27 1
    20   12   14 2
    21   12   28 1
    22   16   17 ar
    23   17   18 ar
    24   18   19 ar
    25   19   20 ar
    26   21   25 1
    27   21   26 1
    28   21   29 1
    29   22   23 1
    30   22   24 1
    31   22   30 1
    32    1   31 1
    33    2   32 1
    34    3   33 1
    35    6   34 1
    36   13   35 1
    37   15   36 1
    38   16   37 1
    39   17   38 1
    40   19   39 1
    41   20   40 1
    42   23   41 1
    43   23   42 1
    44   24   43 1
    45   24   44 1
    46   24   45 1
    47   25   46 1
    48   25   47 1
    49   25   48 1
    50   26   49 1
    51   26   50 1
    52   27   51 1
    53   27   52 1
    54   27   53 1
    55   28   54 1
    56   28   55 1
    57   28   56 1
@<TRIPOS>SUBSTRUCTURE
     1 <0>         1 GROUP 0 A     ****
@<TRIPOS>MOLECULE
MiniDrugBank_200
    8     7     1     0     0
SMALL
NO_CHARGES

@<TRIPOS>ATOM
      1 Cl1         2.0625   -0.7145    0.0000 Cl        1 <0>        0.00000
      2 C1          1.2375   -0.7145    0.0000 C.3       1 <0>        0.00000
      3 C2          0.8250    0.0000    0.0000 C.3       1 <0>        0.00000
      4 Cl2         0.0000    0.0000    0.0000 Cl        1 <0>        0.00000
      5 H1          1.2375   -0.7145    0.0000 H         1 <0>        0.00000
      6 H2          1.2375   -0.7145    0.0000 H         1 <0>        0.00000
      7 H3          0.8250    0.0000    0.0000 H         1 <0>        0.00000
      8 H4          0.8250    0.0000    0.0000 H         1 <0>        0.00000
@<TRIPOS>BOND
     1    1    2 1
     2    2    3 1
     3    3    4 1
     4    2    5 1
     5    2    6 1
     6    3    7 1
     7    3    8 1
@<TRIPOS>SUBSTRUCTURE
     1 <0>         1 GROUP 0 A     ****
@<TRIPOS>MOLECULE
MiniDrugBank_201
   38    37     1     0     0
SMALL
NO_CHARGES

@<TRIPOS>ATOM
      1 C1          5.8224    1.0711    0.0000 C.3       1 <0>        0.00000
      2 C2          6.1286    1.8372    0.0000 C.3       1 <0>        0.00000
      3 C3          6.4348    2.6033    0.0000 C.3       1 <0>        0.00000
      4 C4          5.3625    2.1434    0.0000 C.3       1 <0>        0.00000
      5 O1          4.7143    1.6331    0.0000 O.3       1 <0>        0.00000
      6 C5          6.8946    1.5310    0.0000 C.3       1 <0>        0.00000
      7 O2          7.0125    0.7145    0.0000 O.3       1 <0>        0.00000
      8 C6          7.5429    2.0413    0.0000 C.2       1 <0>        0.00000
      9 O3          7.4250    2.8579    0.0000 O.2       1 <0>        0.00000
     10 N1          8.3089    1.7351    0.0000 N.am      1 <0>        0.00000
     11 C7          8.9571    2.2455    0.0000 C.3       1 <0>        0.00000
     12 C8          9.7232    1.9393    0.0000 C.3       1 <0>        0.00000
     13 C9         10.3714    2.4496    0.0000 C.2       1 <0>        0.00000
     14 O4         10.2536    3.2662    0.0000 O.2       1 <0>        0.00000
     15 N2         11.1375    2.1434    0.0000 N.am      1 <0>        0.00000
     16 C10        11.7857    2.6537    0.0000 C.2       1 <0>        0.00000
     17 C11        12.5518    2.3475    0.0000 C.2       1 <0>        0.00000
     18 S1         13.2000    2.8579    0.0000 S.3       1 <0>        0.00000
     19 H1          5.8224    1.0711    0.0000 H         1 <0>        0.00000
     20 H2          5.8224    1.0711    0.0000 H         1 <0>        0.00000
     21 H3          5.8224    1.0711    0.0000 H         1 <0>        0.00000
     22 H4          6.4348    2.6033    0.0000 H         1 <0>        0.00000
     23 H5          6.4348    2.6033    0.0000 H         1 <0>        0.00000
     24 H6          6.4348    2.6033    0.0000 H         1 <0>        0.00000
     25 H7          5.3625    2.1434    0.0000 H         1 <0>        0.00000
     26 H8          5.3625    2.1434    0.0000 H         1 <0>        0.00000
     27 H9          4.7143    1.6331    0.0000 H         1 <0>        0.00000
     28 H10         6.8946    1.5310    0.0000 H         1 <0>        0.00000
     29 H11         7.0125    0.7145    0.0000 H         1 <0>        0.00000
     30 H12         8.3089    1.7351    0.0000 H         1 <0>        0.00000
     31 H13         8.9571    2.2455    0.0000 H         1 <0>        0.00000
     32 H14         8.9571    2.2455    0.0000 H         1 <0>        0.00000
     33 H15         9.7232    1.9393    0.0000 H         1 <0>        0.00000
     34 H16         9.7232    1.9393    0.0000 H         1 <0>        0.00000
     35 H17        11.1375    2.1434    0.0000 H         1 <0>        0.00000
     36 H18        11.7857    2.6537    0.0000 H         1 <0>        0.00000
     37 H19        12.5518    2.3475    0.0000 H         1 <0>        0.00000
     38 H20        13.2000    2.8579    0.0000 H         1 <0>        0.00000
@<TRIPOS>BOND
     1    1    2 1
     2    2    3 1
     3    2    4 1
     4    4    5 1
     5    2    6 1
     6    6    7 1
     7    6    8 1
     8    8    9 2
     9    8   10 am
    10   10   11 1
    11   11   12 1
    12   12   13 1
    13   13   14 2
    14   13   15 am
    15   15   16 1
    16   16   17 2
    17   17   18 1
    18    1   19 1
    19    1   20 1
    20    1   21 1
    21    3   22 1
    22    3   23 1
    23    3   24 1
    24    4   25 1
    25    4   26 1
    26    5   27 1
    27    6   28 1
    28    7   29 1
    29   10   30 1
    30   11   31 1
    31   11   32 1
    32   12   33 1
    33   12   34 1
    34   15   35 1
    35   16   36 1
    36   17   37 1
    37   18   38 1
@<TRIPOS>SUBSTRUCTURE
     1 <0>         1 GROUP 0 A     ****
@<TRIPOS>MOLECULE
MiniDrugBank_202
   20    19     1     0     0
SMALL
NO_CHARGES

@<TRIPOS>ATOM
      1 P1          0.3081    0.3766    0.0000 P.3       1 <0>        0.00000
      2 O1         -0.4040    0.7840    0.0000 O.3       1 <0>        0.00000
      3 O2          0.3081   -0.4484    0.0000 O.3       1 <0>        0.00000
      4 O3          0.9620    0.8798    0.0000 O.3       1 <0>        0.00000
      5 S1         -0.2739   -0.2088    0.0000 S.2       1 <0>        0.00000
      6 C1         -1.1195    0.3732    0.0000 C.3       1 <0>        0.00000
      7 C2          1.0236   -0.8593    0.0000 C.3       1 <0>        0.00000
      8 C3         -1.8315    0.7840    0.0000 C.3       1 <0>        0.00000
      9 C4          1.0236   -1.6843    0.0000 C.3       1 <0>        0.00000
     10 H1          0.9620    0.8798    0.0000 H         1 <0>        0.00000
     11 H2         -1.1195    0.3732    0.0000 H         1 <0>        0.00000
     12 H3         -1.1195    0.3732    0.0000 H         1 <0>        0.00000
     13 H4          1.0236   -0.8593    0.0000 H         1 <0>        0.00000
     14 H5          1.0236   -0.8593    0.0000 H         1 <0>        0.00000
     15 H6         -1.8315    0.7840    0.0000 H         1 <0>        0.00000
     16 H7         -1.8315    0.7840    0.0000 H         1 <0>        0.00000
     17 H8         -1.8315    0.7840    0.0000 H         1 <0>        0.00000
     18 H9          1.0236   -1.6843    0.0000 H         1 <0>        0.00000
     19 H10         1.0236   -1.6843    0.0000 H         1 <0>        0.00000
     20 H11         1.0236   -1.6843    0.0000 H         1 <0>        0.00000
@<TRIPOS>BOND
     1    1    2 1
     2    1    3 1
     3    1    4 1
     4    1    5 2
     5    2    6 1
     6    3    7 1
     7    6    8 1
     8    7    9 1
     9    4   10 1
    10    6   11 1
    11    6   12 1
    12    7   13 1
    13    7   14 1
    14    8   15 1
    15    8   16 1
    16    8   17 1
    17    9   18 1
    18    9   19 1
    19    9   20 1
@<TRIPOS>SUBSTRUCTURE
     1 <0>         1 GROUP 0 A     ****
@<TRIPOS>MOLECULE
ISF
   30    31     1     0     0
SMALL
NO_CHARGES

@<TRIPOS>ATOM
      1 S1          0.5557    2.5693    0.0000 S.3       1 <0>        0.00000
      2 C1          0.3008    1.7846    0.0000 C.ar      1 <0>        0.00000
      3 C2         -0.5242    1.7846    0.0000 C.ar      1 <0>        0.00000
      4 C3         -0.7791    2.5693    0.0000 C.ar      1 <0>        0.00000
      5 C4         -0.1117    3.0542    0.0000 C.ar      1 <0>        0.00000
      6 I1         -0.1117    3.8792    0.0000 I         1 <0>        0.00000
      7 C5          0.7857    1.1172    0.0000 C.2       1 <0>        0.00000
      8 O1          1.6062    1.2034    0.0000 O.2       1 <0>        0.00000
      9 C6          0.4502    0.3635    0.0000 C.ar      1 <0>        0.00000
     10 C7          0.9351   -0.3039    0.0000 C.ar      1 <0>        0.00000
     11 C8          0.5995   -1.0576    0.0000 C.ar      1 <0>        0.00000
     12 C9         -0.2209   -1.1438    0.0000 C.ar      1 <0>        0.00000
     13 C10        -0.7059   -0.4764    0.0000 C.ar      1 <0>        0.00000
     14 C11        -0.3703    0.2773    0.0000 C.ar      1 <0>        0.00000
     15 C12        -0.5565   -1.8975    0.0000 C.3       1 <0>        0.00000
     16 C13        -0.0716   -2.5649    0.0000 C.3       1 <0>        0.00000
     17 C14        -1.3770   -1.9837    0.0000 C.2       1 <0>        0.00000
     18 O2         -1.7125   -2.7374    0.0000 O.2       1 <0>        0.00000
     19 O3         -1.8619   -1.3163    0.0000 O.3       1 <0>        0.00000
     20 H1          0.0242   -1.8365    0.0000 H         1 <0>        0.00000
     21 H2         -0.5242    1.7846    0.0000 H         1 <0>        0.00000
     22 H3         -0.7791    2.5693    0.0000 H         1 <0>        0.00000
     23 H4          0.9351   -0.3039    0.0000 H         1 <0>        0.00000
     24 H5          0.5995   -1.0576    0.0000 H         1 <0>        0.00000
     25 H6         -0.7059   -0.4764    0.0000 H         1 <0>        0.00000
     26 H7         -0.3703    0.2773    0.0000 H         1 <0>        0.00000
     27 H8         -0.0716   -2.5649    0.0000 H         1 <0>        0.00000
     28 H9         -0.0716   -2.5649    0.0000 H         1 <0>        0.00000
     29 H10        -0.0716   -2.5649    0.0000 H         1 <0>        0.00000
     30 H11        -1.8619   -1.3163    0.0000 H         1 <0>        0.00000
@<TRIPOS>BOND
     1    1    2 1
     2    1    5 1
     3    2    3 2
     4    2    7 1
     5    3    4 1
     6    4    5 2
     7    5    6 1
     8    7    8 2
     9    7    9 1
    10    9   10 ar
    11    9   14 ar
    12   10   11 ar
    13   11   12 ar
    14   12   13 ar
    15   12   15 1
    16   13   14 ar
    17   15   16 1
    18   15   17 1
    19   15   20 1
    20   17   18 2
    21   17   19 1
    22    3   21 1
    23    4   22 1
    24   10   23 1
    25   11   24 1
    26   13   25 1
    27   14   26 1
    28   16   27 1
    29   16   28 1
    30   16   29 1
    31   19   30 1
@<TRIPOS>SUBSTRUCTURE
     1 <0>         1 GROUP 0 A     ****
@<TRIPOS>MOLECULE
1249
  106   107     1     0     0
SMALL
NO_CHARGES

@<TRIPOS>ATOM
      1 I1          7.0944    2.3472    0.0000 I         1 <0>        0.00000
      2 I2          3.5220   -1.3654    0.0000 I         1 <0>        0.00000
      3 I3          8.5234   -0.1279    0.0000 I         1 <0>        0.00000
      4 I4          6.3799   -1.3654    0.0000 I         1 <0>        0.00000
      5 I5          9.9524    2.3472    0.0000 I         1 <0>        0.00000
      6 I6          4.9509   -3.8405    0.0000 I         1 <0>        0.00000
      7 O1          4.9509    1.1096    0.0000 O.3       1 <0>        0.00000
      8 O2          6.3799   -0.5404    0.0000 O.2       1 <0>        0.00000
      9 O3          3.5220   -0.5404    0.0000 O.2       1 <0>        0.00000
     10 O4          9.9524   -0.1279    0.0000 O.2       1 <0>        0.00000
     11 O5          7.0944   -2.6029    0.0000 O.2       1 <0>        0.00000
     12 O6          7.8089    3.5847    0.0000 O.2       1 <0>        0.00000
     13 O7          2.8075   -2.6029    0.0000 O.2       1 <0>        0.00000
     14 O8         12.0958    1.9347    0.0000 O.3       1 <0>        0.00000
     15 O9          6.3799   -5.4905    0.0000 O.3       1 <0>        0.00000
     16 O10        10.6668    4.4097    0.0000 O.3       1 <0>        0.00000
     17 O11         3.5220   -5.4905    0.0000 O.3       1 <0>        0.00000
     18 O12        13.5248    1.1096    0.0000 O.3       1 <0>        0.00000
     19 O13         7.8089   -6.3155    0.0000 O.3       1 <0>        0.00000
     20 O14        10.6668    6.0598    0.0000 O.3       1 <0>        0.00000
     21 O15         2.0930   -6.3155    0.0000 O.3       1 <0>        0.00000
     22 N1          7.0944    0.6971    0.0000 N.am      1 <0>        0.00000
     23 N2          4.9509   -0.5404    0.0000 N.am      1 <0>        0.00000
     24 N3         10.6668    1.1096    0.0000 N.am      1 <0>        0.00000
     25 N4          6.3799   -3.8405    0.0000 N.am      1 <0>        0.00000
     26 N5          9.2379    3.5847    0.0000 N.am      1 <0>        0.00000
     27 N6          3.5220   -3.8405    0.0000 N.am      1 <0>        0.00000
     28 C1          5.6655    0.6971    0.0000 C.3       1 <0>        0.00000
     29 C2          6.3799    1.1096    0.0000 C.3       1 <0>        0.00000
     30 C3          5.6655   -0.1279    0.0000 C.3       1 <0>        0.00000
     31 C4          7.8089    1.1096    0.0000 C.ar      1 <0>        0.00000
     32 C5          4.9509   -1.3654    0.0000 C.ar      1 <0>        0.00000
     33 C6          7.0944   -0.1279    0.0000 C.2       1 <0>        0.00000
     34 C7          4.2365   -0.1279    0.0000 C.2       1 <0>        0.00000
     35 C8          7.8089    1.9347    0.0000 C.ar      1 <0>        0.00000
     36 C9          4.2365   -1.7779    0.0000 C.ar      1 <0>        0.00000
     37 C10         8.5234    0.6971    0.0000 C.ar      1 <0>        0.00000
     38 C11         5.6655   -1.7779    0.0000 C.ar      1 <0>        0.00000
     39 C12         8.5234    2.3472    0.0000 C.ar      1 <0>        0.00000
     40 C13         4.2365   -2.6029    0.0000 C.ar      1 <0>        0.00000
     41 C14         9.2379    1.1096    0.0000 C.ar      1 <0>        0.00000
     42 C15         5.6655   -2.6029    0.0000 C.ar      1 <0>        0.00000
     43 C16         9.2379    1.9347    0.0000 C.ar      1 <0>        0.00000
     44 C17         4.9509   -3.0154    0.0000 C.ar      1 <0>        0.00000
     45 C18         7.8089   -0.5404    0.0000 C.3       1 <0>        0.00000
     46 C19         4.2365    0.6971    0.0000 C.3       1 <0>        0.00000
     47 C20         9.9524    0.6971    0.0000 C.2       1 <0>        0.00000
     48 C21         6.3799   -3.0154    0.0000 C.2       1 <0>        0.00000
     49 C22         8.5234    3.1722    0.0000 C.2       1 <0>        0.00000
     50 C23         3.5220   -3.0154    0.0000 C.2       1 <0>        0.00000
     51 C24        11.3814    0.6971    0.0000 C.3       1 <0>        0.00000
     52 C25         7.0944   -4.2530    0.0000 C.3       1 <0>        0.00000
     53 C26         9.2379    4.4097    0.0000 C.3       1 <0>        0.00000
     54 C27         2.8075   -4.2530    0.0000 C.3       1 <0>        0.00000
     55 C28        12.0958    1.1096    0.0000 C.3       1 <0>        0.00000
     56 C29         7.0944   -5.0780    0.0000 C.3       1 <0>        0.00000
     57 C30         9.9524    4.8222    0.0000 C.3       1 <0>        0.00000
     58 C31         2.8075   -5.0780    0.0000 C.3       1 <0>        0.00000
     59 C32        12.8103    0.6971    0.0000 C.3       1 <0>        0.00000
     60 C33         7.8089   -5.4905    0.0000 C.3       1 <0>        0.00000
     61 C34         9.9524    5.6472    0.0000 C.3       1 <0>        0.00000
     62 C35         2.0930   -5.4905    0.0000 C.3       1 <0>        0.00000
     63 H1          4.9509    1.1096    0.0000 H         1 <0>        0.00000
     64 H2         12.0958    1.9347    0.0000 H         1 <0>        0.00000
     65 H3          6.3799   -5.4905    0.0000 H         1 <0>        0.00000
     66 H4         10.6668    4.4097    0.0000 H         1 <0>        0.00000
     67 H5          3.5220   -5.4905    0.0000 H         1 <0>        0.00000
     68 H6         13.5248    1.1096    0.0000 H         1 <0>        0.00000
     69 H7          7.8089   -6.3155    0.0000 H         1 <0>        0.00000
     70 H8         10.6668    6.0598    0.0000 H         1 <0>        0.00000
     71 H9          2.0930   -6.3155    0.0000 H         1 <0>        0.00000
     72 H10        10.6668    1.1096    0.0000 H         1 <0>        0.00000
     73 H11         6.3799   -3.8405    0.0000 H         1 <0>        0.00000
     74 H12         9.2379    3.5847    0.0000 H         1 <0>        0.00000
     75 H13         3.5220   -3.8405    0.0000 H         1 <0>        0.00000
     76 H14         5.6655    0.6971    0.0000 H         1 <0>        0.00000
     77 H15         6.3799    1.1096    0.0000 H         1 <0>        0.00000
     78 H16         6.3799    1.1096    0.0000 H         1 <0>        0.00000
     79 H17         5.6655   -0.1279    0.0000 H         1 <0>        0.00000
     80 H18         5.6655   -0.1279    0.0000 H         1 <0>        0.00000
     81 H19         7.8089   -0.5404    0.0000 H         1 <0>        0.00000
     82 H20         7.8089   -0.5404    0.0000 H         1 <0>        0.00000
     83 H21         7.8089   -0.5404    0.0000 H         1 <0>        0.00000
     84 H22         4.2365    0.6971    0.0000 H         1 <0>        0.00000
     85 H23         4.2365    0.6971    0.0000 H         1 <0>        0.00000
     86 H24         4.2365    0.6971    0.0000 H         1 <0>        0.00000
     87 H25        11.3814    0.6971    0.0000 H         1 <0>        0.00000
     88 H26        11.3814    0.6971    0.0000 H         1 <0>        0.00000
     89 H27         7.0944   -4.2530    0.0000 H         1 <0>        0.00000
     90 H28         7.0944   -4.2530    0.0000 H         1 <0>        0.00000
     91 H29         9.2379    4.4097    0.0000 H         1 <0>        0.00000
     92 H30         9.2379    4.4097    0.0000 H         1 <0>        0.00000
     93 H31         2.8075   -4.2530    0.0000 H         1 <0>        0.00000
     94 H32         2.8075   -4.2530    0.0000 H         1 <0>        0.00000
     95 H33        12.0958    1.1096    0.0000 H         1 <0>        0.00000
     96 H34         7.0944   -5.0780    0.0000 H         1 <0>        0.00000
     97 H35         9.9524    4.8222    0.0000 H         1 <0>        0.00000
     98 H36         2.8075   -5.0780    0.0000 H         1 <0>        0.00000
     99 H37        12.8103    0.6971    0.0000 H         1 <0>        0.00000
    100 H38        12.8103    0.6971    0.0000 H         1 <0>        0.00000
    101 H39         7.8089   -5.4905    0.0000 H         1 <0>        0.00000
    102 H40         7.8089   -5.4905    0.0000 H         1 <0>        0.00000
    103 H41         9.9524    5.6472    0.0000 H         1 <0>        0.00000
    104 H42         9.9524    5.6472    0.0000 H         1 <0>        0.00000
    105 H43         2.0930   -5.4905    0.0000 H         1 <0>        0.00000
    106 H44         2.0930   -5.4905    0.0000 H         1 <0>        0.00000
@<TRIPOS>BOND
     1    1   35 1
     2    2   36 1
     3    3   37 1
     4    4   38 1
     5    5   43 1
     6    6   44 1
     7    7   28 1
     8    8   33 2
     9    9   34 2
    10   10   47 2
    11   11   48 2
    12   12   49 2
    13   13   50 2
    14   14   55 1
    15   15   56 1
    16   16   57 1
    17   17   58 1
    18   18   59 1
    19   19   60 1
    20   20   61 1
    21   21   62 1
    22   22   29 1
    23   22   31 1
    24   22   33 am
    25   23   30 1
    26   23   32 1
    27   23   34 am
    28   24   47 am
    29   24   51 1
    30   25   48 am
    31   25   52 1
    32   26   49 am
    33   26   53 1
    34   27   50 am
    35   27   54 1
    36   28   29 1
    37   28   30 1
    38   31   35 ar
    39   31   37 ar
    40   32   36 ar
    41   32   38 ar
    42   33   45 1
    43   34   46 1
    44   35   39 ar
    45   36   40 ar
    46   37   41 ar
    47   38   42 ar
    48   39   43 ar
    49   39   49 1
    50   40   44 ar
    51   40   50 1
    52   41   43 ar
    53   41   47 1
    54   42   44 ar
    55   42   48 1
    56   51   55 1
    57   52   56 1
    58   53   57 1
    59   54   58 1
    60   55   59 1
    61   56   60 1
    62   57   61 1
    63   58   62 1
    64    7   63 1
    65   14   64 1
    66   15   65 1
    67   16   66 1
    68   17   67 1
    69   18   68 1
    70   19   69 1
    71   20   70 1
    72   21   71 1
    73   24   72 1
    74   25   73 1
    75   26   74 1
    76   27   75 1
    77   28   76 1
    78   29   77 1
    79   29   78 1
    80   30   79 1
    81   30   80 1
    82   45   81 1
    83   45   82 1
    84   45   83 1
    85   46   84 1
    86   46   85 1
    87   46   86 1
    88   51   87 1
    89   51   88 1
    90   52   89 1
    91   52   90 1
    92   53   91 1
    93   53   92 1
    94   54   93 1
    95   54   94 1
    96   55   95 1
    97   56   96 1
    98   57   97 1
    99   58   98 1
   100   59   99 1
   101   59  100 1
   102   60  101 1
   103   60  102 1
   104   61  103 1
   105   61  104 1
   106   62  105 1
   107   62  106 1
@<TRIPOS>SUBSTRUCTURE
     1 <0>         1 GROUP 0 A     ****
@<TRIPOS>MOLECULE
1275
   20    21     1     0     0
SMALL
NO_CHARGES

@<TRIPOS>ATOM
      1 N1          2.6954   -0.7582    0.0000 N.pl3     1 <0>        0.00000
      2 N2          2.0094    0.4298    0.0000 N.ar      1 <0>        0.00000
      3 N3          2.0094    1.2219    0.0000 N.ar      1 <0>        0.00000
      4 N4          2.0094   -1.1543    0.0000 N.3       1 <0>        0.00000
      5 C1          3.3813    0.4298    0.0000 C.ar      1 <0>        0.00000
      6 C2          3.3813    1.2219    0.0000 C.ar      1 <0>        0.00000
      7 C3          2.6954    0.0338    0.0000 C.ar      1 <0>        0.00000
      8 C4          4.0893    0.0063    0.0000 C.ar      1 <0>        0.00000
      9 C5          4.0893    1.6454    0.0000 C.ar      1 <0>        0.00000
     10 C6          4.8070    0.4133    0.0000 C.ar      1 <0>        0.00000
     11 C7          2.6954    1.6179    0.0000 C.ar      1 <0>        0.00000
     12 C8          4.8070    1.2384    0.0000 C.ar      1 <0>        0.00000
     13 H1          2.6954   -0.7582    0.0000 H         1 <0>        0.00000
     14 H2          2.0094   -1.1543    0.0000 H         1 <0>        0.00000
     15 H3          2.0094   -1.1543    0.0000 H         1 <0>        0.00000
     16 H4          4.0893    0.0063    0.0000 H         1 <0>        0.00000
     17 H5          4.0893    1.6454    0.0000 H         1 <0>        0.00000
     18 H6          4.8070    0.4133    0.0000 H         1 <0>        0.00000
     19 H7          2.6954    1.6179    0.0000 H         1 <0>        0.00000
     20 H8          4.8070    1.2384    0.0000 H         1 <0>        0.00000
@<TRIPOS>BOND
     1    1    4 1
     2    1    7 1
     3    2    3 ar
     4    2    7 ar
     5    3   11 ar
     6    5    6 ar
     7    5    7 ar
     8    5    8 ar
     9    6    9 ar
    10    6   11 ar
    11    8   10 ar
    12    9   12 ar
    13   10   12 ar
    14    1   13 1
    15    4   14 1
    16    4   15 1
    17    8   16 1
    18    9   17 1
    19   10   18 1
    20   11   19 1
    21   12   20 1
@<TRIPOS>SUBSTRUCTURE
     1 <0>         1 GROUP 0 A     ****
@<TRIPOS>MOLECULE
MiniDrugBank_206
   38    39     1     0     0
SMALL
NO_CHARGES

@<TRIPOS>ATOM
      1 C1          1.3222    7.2402    0.0000 C.3       1 <0>        0.00000
      2 C2          2.0367    6.8277    0.0000 C.ar      1 <0>        0.00000
      3 N1          2.7512    7.2402    0.0000 N.ar      1 <0>        0.00000
      4 C3          3.4656    6.8277    0.0000 C.ar      1 <0>        0.00000
      5 C4          3.4656    6.0027    0.0000 C.ar      1 <0>        0.00000
      6 C5          4.1801    5.5902    0.0000 C.3       1 <0>        0.00000
      7 O1          4.8946    6.0027    0.0000 O.3       1 <0>        0.00000
      8 P1          5.6091    5.5902    0.0000 P.3       1 <0>        0.00000
      9 O2          6.3235    5.1777    0.0000 O.3       1 <0>        0.00000
     10 O3          6.0216    6.3047    0.0000 O.3       1 <0>        0.00000
     11 O4          5.1966    4.8757    0.0000 O.2       1 <0>        0.00000
     12 C6          2.7512    5.5902    0.0000 C.ar      1 <0>        0.00000
     13 C7          2.7512    4.7652    0.0000 C.3       1 <0>        0.00000
     14 N2          3.4656    4.3527    0.0000 N.3       1 <0>        0.00000
     15 C8          3.4656    3.5277    0.0000 C.3       1 <0>        0.00000
     16 C9          4.1331    3.0428    0.0000 C.3       1 <0>        0.00000
     17 O5          3.8781    2.2581    0.0000 O.3       1 <0>        0.00000
     18 N3          3.0531    2.2581    0.0000 N.am      1 <0>        0.00000
     19 C10         2.7982    3.0428    0.0000 C.2       1 <0>        0.00000
     20 O6          2.0136    3.2977    0.0000 O.2       1 <0>        0.00000
     21 C11         2.0367    6.0027    0.0000 C.ar      1 <0>        0.00000
     22 O7          1.3222    5.5902    0.0000 O.3       1 <0>        0.00000
     23 H1          1.3222    7.2402    0.0000 H         1 <0>        0.00000
     24 H2          1.3222    7.2402    0.0000 H         1 <0>        0.00000
     25 H3          1.3222    7.2402    0.0000 H         1 <0>        0.00000
     26 H4          3.4656    6.8277    0.0000 H         1 <0>        0.00000
     27 H5          4.1801    5.5902    0.0000 H         1 <0>        0.00000
     28 H6          4.1801    5.5902    0.0000 H         1 <0>        0.00000
     29 H7          6.3235    5.1777    0.0000 H         1 <0>        0.00000
     30 H8          6.0216    6.3047    0.0000 H         1 <0>        0.00000
     31 H9          2.7512    4.7652    0.0000 H         1 <0>        0.00000
     32 H10         2.7512    4.7652    0.0000 H         1 <0>        0.00000
     33 H11         3.4656    4.3527    0.0000 H         1 <0>        0.00000
     34 H12         3.4656    3.5277    0.0000 H         1 <0>        0.00000
     35 H13         4.1331    3.0428    0.0000 H         1 <0>        0.00000
     36 H14         4.1331    3.0428    0.0000 H         1 <0>        0.00000
     37 H15         3.0531    2.2581    0.0000 H         1 <0>        0.00000
     38 H16         1.3222    5.5902    0.0000 H         1 <0>        0.00000
@<TRIPOS>BOND
     1    1    2 1
     2    2    3 ar
     3    3    4 ar
     4    4    5 ar
     5    5    6 1
     6    6    7 1
     7    7    8 1
     8    8    9 1
     9    8   10 1
    10    8   11 2
    11    5   12 ar
    12   12   13 1
    13   13   14 1
    14   14   15 1
    15   15   16 1
    16   16   17 1
    17   17   18 1
    18   18   19 am
    19   15   19 1
    20   19   20 2
    21   12   21 ar
    22    2   21 ar
    23   21   22 1
    24    1   23 1
    25    1   24 1
    26    1   25 1
    27    4   26 1
    28    6   27 1
    29    6   28 1
    30    9   29 1
    31   10   30 1
    32   13   31 1
    33   13   32 1
    34   14   33 1
    35   15   34 1
    36   16   35 1
    37   16   36 1
    38   18   37 1
    39   22   38 1
@<TRIPOS>SUBSTRUCTURE
     1 <0>         1 GROUP 0 A     ****
@<TRIPOS>MOLECULE
IDI
   21    22     1     0     0
SMALL
NO_CHARGES

@<TRIPOS>ATOM
      1 I1         -2.2367   -0.8158    0.0000 I         1 <0>        0.00000
      2 C1         -0.8077    0.8342    0.0000 C.ar      1 <0>        0.00000
      3 C2         -1.5222    0.4217    0.0000 C.ar      1 <0>        0.00000
      4 C3         -1.5222   -0.4033    0.0000 C.ar      1 <0>        0.00000
      5 C4         -0.8077   -0.8158    0.0000 C.ar      1 <0>        0.00000
      6 C5         -0.0933   -0.4033    0.0000 C.ar      1 <0>        0.00000
      7 C6         -0.0933    0.4217    0.0000 C.ar      1 <0>        0.00000
      8 C7          0.6212   -0.8158    0.0000 C.3       1 <0>        0.00000
      9 C8          1.3357    0.4217    0.0000 C.3       1 <0>        0.00000
     10 C9          0.6212    0.8342    0.0000 C.3       1 <0>        0.00000
     11 N1          1.3357   -0.4033    0.0000 N.3       1 <0>        0.00000
     12 H1         -0.8077    0.8342    0.0000 H         1 <0>        0.00000
     13 H2         -1.5222    0.4217    0.0000 H         1 <0>        0.00000
     14 H3         -0.8077   -0.8158    0.0000 H         1 <0>        0.00000
     15 H4          0.6212   -0.8158    0.0000 H         1 <0>        0.00000
     16 H5          0.6212   -0.8158    0.0000 H         1 <0>        0.00000
     17 H6          1.3357    0.4217    0.0000 H         1 <0>        0.00000
     18 H7          1.3357    0.4217    0.0000 H         1 <0>        0.00000
     19 H8          0.6212    0.8342    0.0000 H         1 <0>        0.00000
     20 H9          0.6212    0.8342    0.0000 H         1 <0>        0.00000
     21 H10         1.3357   -0.4033    0.0000 H         1 <0>        0.00000
@<TRIPOS>BOND
     1    1    4 1
     2    2    3 ar
     3    2    7 ar
     4    3    4 ar
     5    4    5 ar
     6    5    6 ar
     7    6    7 ar
     8    6    8 1
     9    7   10 1
    10    8   11 1
    11    9   10 1
    12    9   11 1
    13    2   12 1
    14    3   13 1
    15    5   14 1
    16    8   15 1
    17    8   16 1
    18    9   17 1
    19    9   18 1
    20   10   19 1
    21   10   20 1
    22   11   21 1
@<TRIPOS>SUBSTRUCTURE
     1 <0>         1 GROUP 0 A     ****
@<TRIPOS>MOLECULE
MiniDrugBank_208
   49    52     1     0     0
SMALL
NO_CHARGES

@<TRIPOS>ATOM
      1 O1          7.7254    1.5548    0.0000 O.3       1 <0>        0.00000
      2 O2          2.3626   -1.9994    0.0000 O.3       1 <0>        0.00000
      3 C1          6.8116    0.5185    0.0000 C.3       1 <0>        0.00000
      4 C2          6.8116   -0.3064    0.0000 C.3       1 <0>        0.00000
      5 C3          6.0971   -0.7188    0.0000 C.3       1 <0>        0.00000
      6 C4          7.5921    0.7699    0.0000 C.3       1 <0>        0.00000
      7 C5          6.0971    0.9310    0.0000 C.3       1 <0>        0.00000
      8 C6          7.5921   -0.5577    0.0000 C.3       1 <0>        0.00000
      9 C7          5.3827    0.5185    0.0000 C.3       1 <0>        0.00000
     10 C8          8.0734    0.1061    0.0000 C.3       1 <0>        0.00000
     11 C9          6.1102   -1.5781    0.0000 C.3       1 <0>        0.00000
     12 C10         6.8116    1.3434    0.0000 C.3       1 <0>        0.00000
     13 C11         4.6321   -0.7245    0.0000 C.ar      1 <0>        0.00000
     14 C12         5.3696   -2.0134    0.0000 C.3       1 <0>        0.00000
     15 C13         4.6255   -1.5838    0.0000 C.ar      1 <0>        0.00000
     16 C14         8.2602    0.9263    0.0000 C.1       1 <0>        0.00000
     17 C15         3.8674   -0.2592    0.0000 C.ar      1 <0>        0.00000
     18 C16         3.8538   -2.0372    0.0000 C.ar      1 <0>        0.00000
     19 C17         3.0855   -0.6947    0.0000 C.ar      1 <0>        0.00000
     20 C18         3.0785   -1.5898    0.0000 C.ar      1 <0>        0.00000
     21 C19         9.0774    1.0528    0.0000 C.1       1 <0>        0.00000
     22 H1          6.0759    0.0864    0.0000 H         1 <0>        0.00000
     23 C20         5.3827   -0.3064    0.0000 C.3       1 <0>        0.00000
     24 H2          5.3762   -1.1312    0.0000 H         1 <0>        0.00000
     25 H3          6.8988   -1.1266    0.0000 H         1 <0>        0.00000
     26 C21         1.6497   -1.5840    0.0000 C.3       1 <0>        0.00000
     27 H4          7.7254    1.5548    0.0000 H         1 <0>        0.00000
     28 H5          6.0971    0.9310    0.0000 H         1 <0>        0.00000
     29 H6          6.0971    0.9310    0.0000 H         1 <0>        0.00000
     30 H7          7.5921   -0.5577    0.0000 H         1 <0>        0.00000
     31 H8          7.5921   -0.5577    0.0000 H         1 <0>        0.00000
     32 H9          5.3827    0.5185    0.0000 H         1 <0>        0.00000
     33 H10         5.3827    0.5185    0.0000 H         1 <0>        0.00000
     34 H11         8.0734    0.1061    0.0000 H         1 <0>        0.00000
     35 H12         8.0734    0.1061    0.0000 H         1 <0>        0.00000
     36 H13         6.1102   -1.5781    0.0000 H         1 <0>        0.00000
     37 H14         6.1102   -1.5781    0.0000 H         1 <0>        0.00000
     38 H15         6.8116    1.3434    0.0000 H         1 <0>        0.00000
     39 H16         6.8116    1.3434    0.0000 H         1 <0>        0.00000
     40 H17         6.8116    1.3434    0.0000 H         1 <0>        0.00000
     41 H18         5.3696   -2.0134    0.0000 H         1 <0>        0.00000
     42 H19         5.3696   -2.0134    0.0000 H         1 <0>        0.00000
     43 H20         3.8674   -0.2592    0.0000 H         1 <0>        0.00000
     44 H21         3.8538   -2.0372    0.0000 H         1 <0>        0.00000
     45 H22         3.0855   -0.6947    0.0000 H         1 <0>        0.00000
     46 H23         9.0774    1.0528    0.0000 H         1 <0>        0.00000
     47 H24         1.6497   -1.5840    0.0000 H         1 <0>        0.00000
     48 H25         1.6497   -1.5840    0.0000 H         1 <0>        0.00000
     49 H26         1.6497   -1.5840    0.0000 H         1 <0>        0.00000
@<TRIPOS>BOND
     1    1    6 1
     2    2   20 1
     3    3    4 1
     4    3    6 1
     5    3    7 1
     6    3   12 1
     7    4    5 1
     8    4    8 1
     9    5   11 1
    10    5   22 1
    11    6   10 1
    12    6   16 1
    13    7    9 1
    14    8   10 1
    15   11   14 1
    16   13   15 ar
    17   13   17 ar
    18   14   15 1
    19   15   18 ar
    20   16   21 3
    21   17   19 ar
    22   18   20 ar
    23   19   20 ar
    24    5   23 1
    25    9   23 1
    26   13   23 1
    27   23   24 1
    28    4   25 1
    29    2   26 1
    30    1   27 1
    31    7   28 1
    32    7   29 1
    33    8   30 1
    34    8   31 1
    35    9   32 1
    36    9   33 1
    37   10   34 1
    38   10   35 1
    39   11   36 1
    40   11   37 1
    41   12   38 1
    42   12   39 1
    43   12   40 1
    44   14   41 1
    45   14   42 1
    46   17   43 1
    47   18   44 1
    48   19   45 1
    49   21   46 1
    50   26   47 1
    51   26   48 1
    52   26   49 1
@<TRIPOS>SUBSTRUCTURE
     1 <0>         1 GROUP 0 A     ****
@<TRIPOS>MOLECULE
MiniDrugBank_209
  124   127     1     0     0
SMALL
NO_CHARGES

@<TRIPOS>ATOM
      1 O1          1.9267    2.9561    6.2898 O.3       1 <0>        0.00000
      2 O2          2.8506    1.9393    1.5130 O.3       1 <0>        0.00000
      3 O3         -0.9853    2.6365   -0.0830 O.3       1 <0>        0.00000
      4 O4          2.3800   -0.3301    1.7823 O.3       1 <0>        0.00000
      5 O5         -0.4521    4.2440    6.0877 O.2       1 <0>        0.00000
      6 O6         -0.9180    8.0808    4.4210 O.3       1 <0>        0.00000
      7 O7         -1.7653    6.0141    2.0615 O.3       1 <0>        0.00000
      8 O8          5.0730    1.2748   -0.0979 O.3       1 <0>        0.00000
      9 O9         -2.2216    1.9245    1.7677 O.3       1 <0>        0.00000
     10 O10        -3.2638    5.4015    0.4145 O.2       1 <0>        0.00000
     11 O11        -5.1508    1.6403   -0.2802 O.3       1 <0>        0.00000
     12 O12        -3.3871   -0.7841    1.7937 O.3       1 <0>        0.00000
     13 O13        -0.9686    8.8431    6.6012 O.2       1 <0>        0.00000
     14 O14         5.4118    2.8208    1.5849 O.2       1 <0>        0.00000
     15 O15        -5.3017   -2.0546    1.5550 O.2       1 <0>        0.00000
     16 N1          6.2052   -1.4086    0.4821 N.3       1 <0>        0.00000
     17 C1          1.7030    3.8833    5.2089 C.3       1 <0>        0.00000
     18 C2          2.1734    3.3615    3.8680 C.3       1 <0>        0.00000
     19 C3          1.1578    2.4342    3.1601 C.3       1 <0>        0.00000
     20 C4          1.4684    2.2821    1.6404 C.3       1 <0>        0.00000
     21 C5          2.7585    4.1143    6.2826 C.3       1 <0>        0.00000
     22 C6          1.1246    3.5516    0.7957 C.3       1 <0>        0.00000
     23 C7          0.4294    4.6624    5.3440 C.2       1 <0>        0.00000
     24 C8         -0.4170    3.7192    0.6521 C.3       1 <0>        0.00000
     25 C9          0.2960    5.9453    4.5055 C.3       1 <0>        0.00000
     26 C10         1.1596    1.0462    3.8209 C.3       1 <0>        0.00000
     27 C11        -0.9920    6.7360    4.8838 C.3       1 <0>        0.00000
     28 C12        -0.8682    5.0877    0.0809 C.3       1 <0>        0.00000
     29 C13         3.0181    0.6377    0.9514 C.3       1 <0>        0.00000
     30 C14         1.8474    3.5326   -0.5587 C.3       1 <0>        0.00000
     31 C15        -2.3380    6.0896    4.4348 C.3       1 <0>        0.00000
     32 C16         4.5214    0.3591    0.8471 C.3       1 <0>        0.00000
     33 C17         4.7812   -1.0830    0.3908 C.3       1 <0>        0.00000
     34 C18         1.5418    6.8256    4.6966 C.3       1 <0>        0.00000
     35 C19        -2.8276    6.3441    2.9799 C.3       1 <0>        0.00000
     36 C20         3.9754   -2.0671    1.2424 C.3       1 <0>        0.00000
     37 C21         2.5019   -1.6593    1.2707 C.3       1 <0>        0.00000
     38 C22        -2.2874    2.3051    0.3954 C.3       1 <0>        0.00000
     39 C23        -2.1207    5.5214    0.8359 C.2       1 <0>        0.00000
     40 C24        -1.1669    5.1136   -1.4201 C.3       1 <0>        0.00000
     41 C25        -3.4403    6.4659    5.4387 C.3       1 <0>        0.00000
     42 C26        -2.8094    1.1482   -0.4531 C.3       1 <0>        0.00000
     43 C27        -4.1680    0.6625    0.0425 C.3       1 <0>        0.00000
     44 C28        -4.1415    0.4080    1.5515 C.3       1 <0>        0.00000
     45 C29        -3.4719    1.5374    2.3509 C.3       1 <0>        0.00000
     46 C30        -3.3508    7.7458    2.6619 C.3       1 <0>        0.00000
     47 C31         1.6953   -2.5810    2.1750 C.3       1 <0>        0.00000
     48 C32         6.9275   -0.8704   -0.6699 C.3       1 <0>        0.00000
     49 C33         6.3937   -2.8560    0.5731 C.3       1 <0>        0.00000
     50 C34        -0.9148    9.0359    5.3941 C.2       1 <0>        0.00000
     51 C35        -4.3697    2.7509    2.5809 C.3       1 <0>        0.00000
     52 C36         5.4783    2.4717    0.4141 C.2       1 <0>        0.00000
     53 C37        -0.8334   10.3931    4.7637 C.3       1 <0>        0.00000
     54 C38        -6.4597    1.0867   -0.2735 C.3       1 <0>        0.00000
     55 C39         6.0327    3.3253   -0.6859 C.3       1 <0>        0.00000
     56 C40        -4.1012   -1.9453    1.7648 C.2       1 <0>        0.00000
     57 C41        -3.1872   -3.1024    2.0324 C.3       1 <0>        0.00000
     58 H1          2.3914    4.2179    3.2460 H         1 <0>        0.00000
     59 H2          3.1127    2.8455    4.0279 H         1 <0>        0.00000
     60 H3          0.1376    2.8076    3.2548 H         1 <0>        0.00000
     61 H4          0.8795    1.4381    1.2656 H         1 <0>        0.00000
     62 H5          2.5761    4.8656    7.0422 H         1 <0>        0.00000
     63 H6          3.8042    3.9817    6.0387 H         1 <0>        0.00000
     64 H7          1.5028    4.4268    1.3418 H         1 <0>        0.00000
     65 H8         -0.8458    3.6416    1.6656 H         1 <0>        0.00000
     66 H9          0.2519    5.6659    3.4515 H         1 <0>        0.00000
     67 H10         0.4434    0.4088    3.3138 H         1 <0>        0.00000
     68 H11         0.8845    1.1479    4.8651 H         1 <0>        0.00000
     69 H12         2.1522    0.6157    3.7437 H         1 <0>        0.00000
     70 H13        -1.0315    6.7896    5.9870 H         1 <0>        0.00000
     71 H14        -0.0953    5.8409    0.2893 H         1 <0>        0.00000
     72 H15         2.5522    0.6579   -0.0263 H         1 <0>        0.00000
     73 H16         1.5857    4.4259   -1.1154 H         1 <0>        0.00000
     74 H17         1.5417    2.6524   -1.1139 H         1 <0>        0.00000
     75 H18         2.9188    3.5062   -0.3910 H         1 <0>        0.00000
     76 H19        -2.2147    5.0126    4.5636 H         1 <0>        0.00000
     77 H20         4.9969    0.5468    1.8177 H         1 <0>        0.00000
     78 H21         4.4852   -1.1868   -0.6611 H         1 <0>        0.00000
     79 H22         1.4445    7.7316    4.1026 H         1 <0>        0.00000
     80 H23         2.4275    6.2806    4.3776 H         1 <0>        0.00000
     81 H24         1.6433    7.0933    5.7460 H         1 <0>        0.00000
     82 H25        -3.6657    5.6101    2.7817 H         1 <0>        0.00000
     83 H26         4.0793   -3.0867    0.8517 H         1 <0>        0.00000
     84 H27         4.3715   -2.0660    2.2674 H         1 <0>        0.00000
     85 H28         2.0735   -1.6948    0.2609 H         1 <0>        0.00000
     86 H29        -2.9216    3.1544    0.2952 H         1 <0>        0.00000
     87 H30        -1.4737    6.1148   -1.7179 H         1 <0>        0.00000
     88 H31        -1.9675    4.4123   -1.6489 H         1 <0>        0.00000
     89 H32        -0.2755    4.8325   -1.9784 H         1 <0>        0.00000
     90 H33        -4.3812    6.0177    5.1302 H         1 <0>        0.00000
     91 H34        -3.5488    7.5469    5.4710 H         1 <0>        0.00000
     92 H35        -3.1726    6.1000    6.4265 H         1 <0>        0.00000
     93 H36        -2.9155    1.4794   -1.4929 H         1 <0>        0.00000
     94 H37        -2.1010    0.3133   -0.4552 H         1 <0>        0.00000
     95 H38        -4.4512   -0.2619   -0.4907 H         1 <0>        0.00000
     96 H39        -5.1578    0.2251    1.9158 H         1 <0>        0.00000
     97 H40        -3.2393    1.1284    3.3912 H         1 <0>        0.00000
     98 H41        -4.1526    8.0016    3.3508 H         1 <0>        0.00000
     99 H42        -3.7303    7.7718    1.6431 H         1 <0>        0.00000
    100 H43        -2.5447    8.4686    2.7640 H         1 <0>        0.00000
    101 H44         1.7629   -3.6088    1.8171 H         1 <0>        0.00000
    102 H45         0.6481   -2.2773    2.1799 H         1 <0>        0.00000
    103 H46         2.0808   -2.5361    3.1940 H         1 <0>        0.00000
    104 H47         7.9775   -1.1260   -0.5760 H         1 <0>        0.00000
    105 H48         6.8079    0.2078   -0.6891 H         1 <0>        0.00000
    106 H49         6.5191   -1.3042   -1.5765 H         1 <0>        0.00000
    107 H50         7.4554   -3.0676    0.6394 H         1 <0>        0.00000
    108 H51         5.9765   -3.3224   -0.3132 H         1 <0>        0.00000
    109 H52         5.8855   -3.2229    1.4585 H         1 <0>        0.00000
    110 H53        -5.3130    2.4347    3.0240 H         1 <0>        0.00000
    111 H54        -4.5707    3.2475    1.6327 H         1 <0>        0.00000
    112 H55        -3.8782    3.4527    3.2533 H         1 <0>        0.00000
    113 H56        -1.8395   10.7724    4.5686 H         1 <0>        0.00000
    114 H57        -0.2558   10.3379    3.8375 H         1 <0>        0.00000
    115 H58        -0.3281   11.0810    5.4480 H         1 <0>        0.00000
    116 H59        -7.1810    1.8656   -0.5247 H         1 <0>        0.00000
    117 H60        -6.6723    0.6776    0.7155 H         1 <0>        0.00000
    118 H61        -6.5067    0.2902   -1.0174 H         1 <0>        0.00000
    119 H62         5.2339    3.9260   -1.1278 H         1 <0>        0.00000
    120 H63         6.5044    2.6941   -1.4433 H         1 <0>        0.00000
    121 H64         6.7896    3.9998   -0.2751 H         1 <0>        0.00000
    122 H65        -3.1448   -3.3009    3.1062 H         1 <0>        0.00000
    123 H66        -2.1902   -2.8859    1.6407 H         1 <0>        0.00000
    124 H67        -3.5729   -3.9933    1.5282 H         1 <0>        0.00000
@<TRIPOS>BOND
     1    1   17 1
     2    1   21 1
     3    2   20 1
     4    2   29 1
     5    3   24 1
     6    3   38 1
     7    4   29 1
     8    4   37 1
     9    5   23 2
    10    6   27 1
    11    6   50 1
    12    7   35 1
    13    7   39 1
    14    8   32 1
    15    8   52 1
    16    9   38 1
    17    9   45 1
    18   10   39 2
    19   11   43 1
    20   11   54 1
    21   12   44 1
    22   12   56 1
    23   13   50 2
    24   14   52 2
    25   15   56 2
    26   16   33 1
    27   16   48 1
    28   16   49 1
    29   17   18 1
    30   17   21 1
    31   17   23 1
    32   18   19 1
    33   19   20 1
    34   19   26 1
    35   20   22 1
    36   22   24 1
    37   22   30 1
    38   23   25 1
    39   24   28 1
    40   25   27 1
    41   25   34 1
    42   27   31 1
    43   28   39 1
    44   28   40 1
    45   29   32 1
    46   31   35 1
    47   31   41 1
    48   32   33 1
    49   33   36 1
    50   35   46 1
    51   36   37 1
    52   37   47 1
    53   38   42 1
    54   42   43 1
    55   43   44 1
    56   44   45 1
    57   45   51 1
    58   50   53 1
    59   52   55 1
    60   56   57 1
    61   18   58 1
    62   18   59 1
    63   19   60 1
    64   20   61 1
    65   21   62 1
    66   21   63 1
    67   22   64 1
    68   24   65 1
    69   25   66 1
    70   26   67 1
    71   26   68 1
    72   26   69 1
    73   27   70 1
    74   28   71 1
    75   29   72 1
    76   30   73 1
    77   30   74 1
    78   30   75 1
    79   31   76 1
    80   32   77 1
    81   33   78 1
    82   34   79 1
    83   34   80 1
    84   34   81 1
    85   35   82 1
    86   36   83 1
    87   36   84 1
    88   37   85 1
    89   38   86 1
    90   40   87 1
    91   40   88 1
    92   40   89 1
    93   41   90 1
    94   41   91 1
    95   41   92 1
    96   42   93 1
    97   42   94 1
    98   43   95 1
    99   44   96 1
   100   45   97 1
   101   46   98 1
   102   46   99 1
   103   46  100 1
   104   47  101 1
   105   47  102 1
   106   47  103 1
   107   48  104 1
   108   48  105 1
   109   48  106 1
   110   49  107 1
   111   49  108 1
   112   49  109 1
   113   51  110 1
   114   51  111 1
   115   51  112 1
   116   53  113 1
   117   53  114 1
   118   53  115 1
   119   54  116 1
   120   54  117 1
   121   54  118 1
   122   55  119 1
   123   55  120 1
   124   55  121 1
   125   57  122 1
   126   57  123 1
   127   57  124 1
@<TRIPOS>SUBSTRUCTURE
     1 <0>         1 GROUP 0 A     ****
@<TRIPOS>MOLECULE
1362
   60    60     1     0     0
SMALL
NO_CHARGES

@<TRIPOS>ATOM
      1 I1          3.5220    0.8250    0.0000 I         1 <0>        0.00000
      2 I2          6.3799    0.8250    0.0000 I         1 <0>        0.00000
      3 I3          4.9509   -1.6500    0.0000 I         1 <0>        0.00000
      4 O1          4.9509    3.3001    0.0000 O.3       1 <0>        0.00000
      5 O2          6.3799    4.1251    0.0000 O.3       1 <0>        0.00000
      6 O3          3.5220    1.6500    0.0000 O.2       1 <0>        0.00000
      7 O4          6.3799   -3.3001    0.0000 O.3       1 <0>        0.00000
      8 O5          3.5220   -3.3001    0.0000 O.3       1 <0>        0.00000
      9 O6          7.0944   -0.4125    0.0000 O.2       1 <0>        0.00000
     10 O7          2.8075   -0.4125    0.0000 O.2       1 <0>        0.00000
     11 O8          7.8089   -4.1251    0.0000 O.3       1 <0>        0.00000
     12 O9          2.0930   -4.1251    0.0000 O.3       1 <0>        0.00000
     13 N1          4.9509    1.6500    0.0000 N.am      1 <0>        0.00000
     14 N2          6.3799   -1.6500    0.0000 N.am      1 <0>        0.00000
     15 N3          3.5220   -1.6500    0.0000 N.am      1 <0>        0.00000
     16 C1          5.6655    2.0625    0.0000 C.3       1 <0>        0.00000
     17 C2          4.9509    0.8250    0.0000 C.ar      1 <0>        0.00000
     18 C3          5.6655    2.8876    0.0000 C.3       1 <0>        0.00000
     19 C4          4.2365    0.4125    0.0000 C.ar      1 <0>        0.00000
     20 C5          5.6655    0.4125    0.0000 C.ar      1 <0>        0.00000
     21 C6          4.2365   -0.4125    0.0000 C.ar      1 <0>        0.00000
     22 C7          5.6655   -0.4125    0.0000 C.ar      1 <0>        0.00000
     23 C8          4.9509   -0.8250    0.0000 C.ar      1 <0>        0.00000
     24 C9          6.3799    3.3001    0.0000 C.3       1 <0>        0.00000
     25 C10         4.2365    2.0625    0.0000 C.2       1 <0>        0.00000
     26 C11         6.3799   -0.8250    0.0000 C.2       1 <0>        0.00000
     27 C12         3.5220   -0.8250    0.0000 C.2       1 <0>        0.00000
     28 C13         7.0944   -2.0625    0.0000 C.3       1 <0>        0.00000
     29 C14         2.8075   -2.0625    0.0000 C.3       1 <0>        0.00000
     30 C15         7.0944   -2.8876    0.0000 C.3       1 <0>        0.00000
     31 C16         2.8075   -2.8876    0.0000 C.3       1 <0>        0.00000
     32 C17         4.2365    2.8876    0.0000 C.3       1 <0>        0.00000
     33 C18         7.8089   -3.3001    0.0000 C.3       1 <0>        0.00000
     34 C19         2.0930   -3.3001    0.0000 C.3       1 <0>        0.00000
     35 H1          4.9509    3.3001    0.0000 H         1 <0>        0.00000
     36 H2          6.3799    4.1251    0.0000 H         1 <0>        0.00000
     37 H3          6.3799   -3.3001    0.0000 H         1 <0>        0.00000
     38 H4          3.5220   -3.3001    0.0000 H         1 <0>        0.00000
     39 H5          7.8089   -4.1251    0.0000 H         1 <0>        0.00000
     40 H6          2.0930   -4.1251    0.0000 H         1 <0>        0.00000
     41 H7          6.3799   -1.6500    0.0000 H         1 <0>        0.00000
     42 H8          3.5220   -1.6500    0.0000 H         1 <0>        0.00000
     43 H9          5.6655    2.0625    0.0000 H         1 <0>        0.00000
     44 H10         5.6655    2.0625    0.0000 H         1 <0>        0.00000
     45 H11         5.6655    2.8876    0.0000 H         1 <0>        0.00000
     46 H12         6.3799    3.3001    0.0000 H         1 <0>        0.00000
     47 H13         6.3799    3.3001    0.0000 H         1 <0>        0.00000
     48 H14         7.0944   -2.0625    0.0000 H         1 <0>        0.00000
     49 H15         7.0944   -2.0625    0.0000 H         1 <0>        0.00000
     50 H16         2.8075   -2.0625    0.0000 H         1 <0>        0.00000
     51 H17         2.8075   -2.0625    0.0000 H         1 <0>        0.00000
     52 H18         7.0944   -2.8876    0.0000 H         1 <0>        0.00000
     53 H19         2.8075   -2.8876    0.0000 H         1 <0>        0.00000
     54 H20         4.2365    2.8876    0.0000 H         1 <0>        0.00000
     55 H21         4.2365    2.8876    0.0000 H         1 <0>        0.00000
     56 H22         4.2365    2.8876    0.0000 H         1 <0>        0.00000
     57 H23         7.8089   -3.3001    0.0000 H         1 <0>        0.00000
     58 H24         7.8089   -3.3001    0.0000 H         1 <0>        0.00000
     59 H25         2.0930   -3.3001    0.0000 H         1 <0>        0.00000
     60 H26         2.0930   -3.3001    0.0000 H         1 <0>        0.00000
@<TRIPOS>BOND
     1    1   19 1
     2    2   20 1
     3    3   23 1
     4    4   18 1
     5    5   24 1
     6    6   25 2
     7    7   30 1
     8    8   31 1
     9    9   26 2
    10   10   27 2
    11   11   33 1
    12   12   34 1
    13   13   16 1
    14   13   17 1
    15   13   25 am
    16   14   26 am
    17   14   28 1
    18   15   27 am
    19   15   29 1
    20   16   18 1
    21   17   19 ar
    22   17   20 ar
    23   18   24 1
    24   19   21 ar
    25   20   22 ar
    26   21   23 ar
    27   21   27 1
    28   22   23 ar
    29   22   26 1
    30   25   32 1
    31   28   30 1
    32   29   31 1
    33   30   33 1
    34   31   34 1
    35    4   35 1
    36    5   36 1
    37    7   37 1
    38    8   38 1
    39   11   39 1
    40   12   40 1
    41   14   41 1
    42   15   42 1
    43   16   43 1
    44   16   44 1
    45   18   45 1
    46   24   46 1
    47   24   47 1
    48   28   48 1
    49   28   49 1
    50   29   50 1
    51   29   51 1
    52   30   52 1
    53   31   53 1
    54   32   54 1
    55   32   55 1
    56   32   56 1
    57   33   57 1
    58   33   58 1
    59   34   59 1
    60   34   60 1
@<TRIPOS>SUBSTRUCTURE
     1 <0>         1 GROUP 0 A     ****
@<TRIPOS>MOLECULE
MiniDrugBank_211
   26    27     1     0     0
SMALL
NO_CHARGES

@<TRIPOS>ATOM
      1 N1         -4.0934    0.8711   -3.2600 N.3       1 <0>        0.00000
      2 C1         -3.9141    1.6695   -2.0758 C.3       1 <0>        0.00000
      3 C2         -4.0820    3.1748   -2.3605 C.3       1 <0>        0.00000
      4 C3         -2.6899    3.7139   -2.7313 C.3       1 <0>        0.00000
      5 C4         -2.4976    1.6288   -1.5857 C.ar      1 <0>        0.00000
      6 C5         -1.8062    2.7901   -1.9539 C.ar      1 <0>        0.00000
      7 C6         -1.8645    0.6150   -0.8847 C.ar      1 <0>        0.00000
      8 C7         -0.4685    2.9566   -1.6376 C.ar      1 <0>        0.00000
      9 C8         -5.5080    0.6818   -3.5512 C.3       1 <0>        0.00000
     10 C9         -0.5186    0.7801   -0.5508 C.ar      1 <0>        0.00000
     11 C10         0.1745    1.9421   -0.9253 C.ar      1 <0>        0.00000
     12 C11        -5.6693   -0.1293   -4.7542 C.1       1 <0>        0.00000
     13 C12        -5.8175   -0.7957   -5.7419 C.1       1 <0>        0.00000
     14 H1         -3.6548   -0.0388   -3.1208 H         1 <0>        0.00000
     15 H2         -4.6159    1.3559   -1.2834 H         1 <0>        0.00000
     16 H3         -4.8318    3.3992   -3.1272 H         1 <0>        0.00000
     17 H4         -4.4192    3.6724   -1.4395 H         1 <0>        0.00000
     18 H5         -2.4958    3.6098   -3.8038 H         1 <0>        0.00000
     19 H6         -2.5744    4.7582   -2.4280 H         1 <0>        0.00000
     20 H7         -2.3953   -0.2877   -0.6015 H         1 <0>        0.00000
     21 H8          0.0714    3.8497   -1.9332 H         1 <0>        0.00000
     22 H9         -5.9741    0.2015   -2.6913 H         1 <0>        0.00000
     23 H10        -5.9674    1.6615   -3.6824 H         1 <0>        0.00000
     24 H11         0.0004    0.0004    0.0001 H         1 <0>        0.00000
     25 H12         1.2231    2.0500   -0.6612 H         1 <0>        0.00000
     26 H13        -5.9486   -1.3871   -6.6177 H         1 <0>        0.00000
@<TRIPOS>BOND
     1    1    2 1
     2    1    9 1
     3    2    3 1
     4    2    5 1
     5    3    4 1
     6    4    6 1
     7    5    6 ar
     8    5    7 ar
     9    6    8 ar
    10    7   10 ar
    11    8   11 ar
    12    9   12 1
    13   10   11 ar
    14   12   13 3
    15    1   14 1
    16    2   15 1
    17    3   16 1
    18    3   17 1
    19    4   18 1
    20    4   19 1
    21    7   20 1
    22    8   21 1
    23    9   22 1
    24    9   23 1
    25   10   24 1
    26   11   25 1
    27   13   26 1
@<TRIPOS>SUBSTRUCTURE
     1 <0>         1 GROUP 0 A     ****
@<TRIPOS>MOLECULE
MiniDrugBank_212
   81    85     1     0     0
SMALL
NO_CHARGES

@<TRIPOS>ATOM
      1 C1         -9.2664    3.7649   10.3980 C.3       1 <0>        0.00000
      2 C2         -8.7915    3.2737    9.0683 C.ar      1 <0>        0.00000
      3 C3         -7.8522    2.3316    8.9187 C.ar      1 <0>        0.00000
      4 N1         -7.4111    1.8769    7.6929 N.am      1 <0>        0.00000
      5 C4         -6.3982    0.8623    7.6822 C.3       1 <0>        0.00000
      6 C5         -6.8259   -0.4133    8.3849 C.3       1 <0>        0.00000
      7 C6         -5.5043   -0.9489    8.8821 C.3       1 <0>        0.00000
      8 N2         -5.6981   -1.8247   10.0315 N.2       1 <0>        0.00000
      9 N3         -5.8677   -3.0271    9.7688 N.1       1 <0>        0.00000
     10 N4         -6.0242   -4.1333    9.5385 N.1       1 <0>        0.00000
     11 C7         -4.7845    0.3300    9.2809 C.3       1 <0>        0.00000
     12 C8         -3.2721    0.2171    9.2139 C.3       1 <0>        0.00000
     13 O1         -2.6988    1.4547    9.6023 O.3       1 <0>        0.00000
     14 P1         -1.2589    1.8955    8.9634 P.3       1 <0>        0.00000
     15 O2         -0.3764    0.6685    8.8918 O.3       1 <0>        0.00000
     16 O3         -0.7746    3.1681    9.6239 O.2       1 <0>        0.00000
     17 O4         -1.7353    2.2923    7.4523 O.3       1 <0>        0.00000
     18 P2         -0.8602    2.8367    6.1866 P.3       1 <0>        0.00000
     19 O5         -0.3104    4.2030    6.5317 O.3       1 <0>        0.00000
     20 O6          0.0429    1.7256    5.6982 O.2       1 <0>        0.00000
     21 O7         -2.0425    2.9910    5.0723 O.3       1 <0>        0.00000
     22 P3         -2.0208    3.4846    3.5171 P.3       1 <0>        0.00000
     23 O8         -1.2458    2.4812    2.6926 O.3       1 <0>        0.00000
     24 O9         -1.6688    4.9555    3.4886 O.2       1 <0>        0.00000
     25 O10        -3.6093    3.3260    3.1816 O.3       1 <0>        0.00000
     26 P4         -4.9101    4.0366    3.8621 P.3       1 <0>        0.00000
     27 O11        -6.1438    3.6424    3.0811 O.3       1 <0>        0.00000
     28 O12        -4.8357    3.8680    5.3632 O.2       1 <0>        0.00000
     29 O13        -4.5427    5.5964    3.5538 O.3       1 <0>        0.00000
     30 P5         -5.3581    6.9623    3.9197 P.3       1 <0>        0.00000
     31 O14        -4.5103    8.1498    3.5189 O.3       1 <0>        0.00000
     32 O15        -6.7891    6.8170    3.4499 O.2       1 <0>        0.00000
     33 O16        -5.3840    6.8192    5.5481 O.3       1 <0>        0.00000
     34 C9         -4.2209    7.1901    6.2683 C.3       1 <0>        0.00000
     35 C10        -4.4664    6.9778    7.7514 C.3       1 <0>        0.00000
     36 O17        -3.2913    7.3516    8.4908 O.3       1 <0>        0.00000
     37 C11        -3.1132    6.4085    9.5652 C.3       1 <0>        0.00000
     38 C12        -4.3320    5.4945    9.5700 C.3       1 <0>        0.00000
     39 O18        -3.9767    4.1855    9.9792 O.3       1 <0>        0.00000
     40 C13        -4.7472    5.5292    8.1153 C.3       1 <0>        0.00000
     41 O19        -6.1161    5.2023    7.9708 O.3       1 <0>        0.00000
     42 N5         -2.9187    7.1370   10.8171 N.pl3     1 <0>        0.00000
     43 C14        -3.4394    8.3662   11.1234 C.ar      1 <0>        0.00000
     44 N6         -3.0930    8.7654   12.3294 N.ar      1 <0>        0.00000
     45 C15        -2.3137    7.7507   12.8255 C.ar      1 <0>        0.00000
     46 C16        -2.1929    6.7272   11.8991 C.ar      1 <0>        0.00000
     47 N7         -1.5092    5.5817   12.0397 N.ar      1 <0>        0.00000
     48 C17        -0.9171    5.5310   13.2529 C.ar      1 <0>        0.00000
     49 N8         -0.9459    6.4466   14.2513 N.ar      1 <0>        0.00000
     50 C18        -1.6562    7.5807   14.0398 C.ar      1 <0>        0.00000
     51 N9         -1.7247    8.5681   15.0375 N.pl3     1 <0>        0.00000
     52 O20        -5.2308    1.3444    8.3634 O.3       1 <0>        0.00000
     53 C19        -7.9260    2.3803    6.4908 C.ar      1 <0>        0.00000
     54 O21        -7.5699    2.0123    5.3694 O.2       1 <0>        0.00000
     55 N10        -8.9074    3.3648    6.6509 N.am      1 <0>        0.00000
     56 C20        -9.3974    3.8673    7.8468 C.ar      1 <0>        0.00000
     57 O22       -10.2639    4.7350    7.9146 O.2       1 <0>        0.00000
     58 H1         -8.6616    4.6141   10.7268 H         1 <0>        0.00000
     59 H2         -9.1922    2.9699   11.1453 H         1 <0>        0.00000
     60 H3        -10.3114    4.0808   10.3347 H         1 <0>        0.00000
     61 H4         -7.3844    1.8726    9.7843 H         1 <0>        0.00000
     62 H5         -6.1411    0.6739    6.6269 H         1 <0>        0.00000
     63 H6         -7.5704   -0.2571    9.1636 H         1 <0>        0.00000
     64 H7         -7.2318   -1.1066    7.6451 H         1 <0>        0.00000
     65 H8         -4.9663   -1.5130    8.0963 H         1 <0>        0.00000
     66 H9         -5.0700    0.6536   10.2993 H         1 <0>        0.00000
     67 H10        -2.9495   -0.0164    8.1949 H         1 <0>        0.00000
     68 H11        -2.9151   -0.5647    9.8909 H         1 <0>        0.00000
     69 H12        -3.3817    6.5750    5.9279 H         1 <0>        0.00000
     70 H13        -3.9978    8.2424    6.0643 H         1 <0>        0.00000
     71 H14        -5.2878    7.6296    8.0747 H         1 <0>        0.00000
     72 H15        -2.1672    5.8521    9.3913 H         1 <0>        0.00000
     73 H16        -5.1302    5.8570   10.2283 H         1 <0>        0.00000
     74 H17        -4.7890    3.6513    9.9629 H         1 <0>        0.00000
     75 H18        -4.1523    4.8232    7.5245 H         1 <0>        0.00000
     76 H19        -6.3214    5.2413    7.0207 H         1 <0>        0.00000
     77 H20        -4.0606    8.9188   10.4319 H         1 <0>        0.00000
     78 H21        -0.3390    4.6357   13.4563 H         1 <0>        0.00000
     79 H22        -2.2139    9.4232   14.8520 H         1 <0>        0.00000
     80 H23        -1.2058    8.4473   15.8866 H         1 <0>        0.00000
     81 H24        -9.3036    3.7531    5.7994 H         1 <0>        0.00000
@<TRIPOS>BOND
     1    1    2 1
     2    2    3 2
     3    3    4 1
     4    4    5 1
     5    5    6 1
     6    6    7 1
     7    7    8 1
     8    8    9 2
     9    9   10 2
    10    7   11 1
    11   11   12 1
    12   12   13 1
    13   13   14 1
    14   14   15 1
    15   14   16 2
    16   14   17 1
    17   17   18 1
    18   18   19 1
    19   18   20 2
    20   18   21 1
    21   21   22 1
    22   22   23 1
    23   22   24 2
    24   22   25 1
    25   25   26 1
    26   26   27 1
    27   26   28 2
    28   26   29 1
    29   29   30 1
    30   30   31 1
    31   30   32 2
    32   30   33 1
    33   33   34 1
    34   34   35 1
    35   35   36 1
    36   36   37 1
    37   37   38 1
    38   38   39 1
    39   38   40 1
    40   35   40 1
    41   40   41 1
    42   37   42 1
    43   42   43 1
    44   43   44 2
    45   44   45 1
    46   45   46 ar
    47   42   46 1
    48   46   47 ar
    49   47   48 ar
    50   48   49 ar
    51   49   50 ar
    52   45   50 ar
    53   50   51 1
    54   11   52 1
    55    5   52 1
    56    4   53 am
    57   53   54 2
    58   53   55 am
    59   55   56 am
    60    2   56 1
    61   56   57 2
    62    1   58 1
    63    1   59 1
    64    1   60 1
    65    3   61 1
    66    5   62 1
    67    6   63 1
    68    6   64 1
    69    7   65 1
    70   11   66 1
    71   12   67 1
    72   12   68 1
    73   34   69 1
    74   34   70 1
    75   35   71 1
    76   37   72 1
    77   38   73 1
    78   39   74 1
    79   40   75 1
    80   41   76 1
    81   43   77 1
    82   48   78 1
    83   51   79 1
    84   51   80 1
    85   55   81 1
@<TRIPOS>SUBSTRUCTURE
     1 <0>         1 GROUP 0 A     ****
@<TRIPOS>MOLECULE
MiniDrugBank_213
   57    63     1     0     0
SMALL
NO_CHARGES

@<TRIPOS>ATOM
      1 O1          4.3030    0.6765   -0.2103 O.3       1 <0>        0.00000
      2 O2          6.3983    1.6030   -0.3118 O.2       1 <0>        0.00000
      3 O3         -6.4471   -0.9358    2.0030 O.2       1 <0>        0.00000
      4 C1          0.7680    0.0979   -1.0420 C.3       1 <0>        0.00000
      5 C2          1.5244   -0.4816   -2.2039 C.3       1 <0>        0.00000
      6 C3          2.9180    0.0683   -2.1097 C.3       1 <0>        0.00000
      7 C4          1.8195    0.4589    0.0517 C.3       1 <0>        0.00000
      8 C5         -0.4374   -0.6536   -0.4799 C.3       1 <0>        0.00000
      9 C6          3.0327    0.9191   -0.8347 C.3       1 <0>        0.00000
     10 C7          2.6896   -1.4240   -2.1392 C.3       1 <0>        0.00000
     11 C8         -1.4336   -1.0250   -1.5502 C.3       1 <0>        0.00000
     12 C9         -1.1480    0.2623    0.5751 C.3       1 <0>        0.00000
     13 C10        -2.8925   -1.1619   -1.2047 C.3       1 <0>        0.00000
     14 C11         1.1106    1.5080    0.9342 C.3       1 <0>        0.00000
     15 C12        -2.0868   -2.3849   -1.5325 C.3       1 <0>        0.00000
     16 C13        -2.3679   -0.4781    1.2506 C.3       1 <0>        0.00000
     17 C14        -0.1634    0.9246    1.5819 C.3       1 <0>        0.00000
     18 C15         3.0842    2.4060   -1.1685 C.3       1 <0>        0.00000
     19 C16        -3.3784   -0.9267    0.1741 C.2       1 <0>        0.00000
     20 C17         2.2722   -0.6856    1.0048 C.3       1 <0>        0.00000
     21 C18        -3.0934    0.4974    2.2197 C.3       1 <0>        0.00000
     22 C19         4.5476    2.6317   -1.4858 C.3       1 <0>        0.00000
     23 C20        -1.9048   -1.7208    2.0519 C.3       1 <0>        0.00000
     24 C21         5.2141    1.6152   -0.6096 C.2       1 <0>        0.00000
     25 C22        -4.6953   -1.0198    0.4449 C.2       1 <0>        0.00000
     26 C23        -4.3701   -0.0804    2.8193 C.3       1 <0>        0.00000
     27 C24        -5.2640   -0.6907    1.7716 C.2       1 <0>        0.00000
     28 H1          0.3729    1.0435   -1.4515 H         1 <0>        0.00000
     29 H2          1.0058   -0.3848   -3.1491 H         1 <0>        0.00000
     30 H3          3.3641    0.5126   -2.9897 H         1 <0>        0.00000
     31 H4         -0.0793   -1.5801   -0.0244 H         1 <0>        0.00000
     32 H5         -1.2268   -0.5773   -2.5150 H         1 <0>        0.00000
     33 H6         -1.5759    1.1067    0.0086 H         1 <0>        0.00000
     34 H7         -3.5810   -0.8180   -1.9738 H         1 <0>        0.00000
     35 H8          2.8176   -2.0477   -1.2728 H         1 <0>        0.00000
     36 H9          2.9552   -1.9435   -3.0554 H         1 <0>        0.00000
     37 H10         1.7845    1.8770    1.7169 H         1 <0>        0.00000
     38 H11         0.8122    2.3822    0.3425 H         1 <0>        0.00000
     39 H12        -2.2664   -2.8643   -2.4883 H         1 <0>        0.00000
     40 H13        -1.8352   -3.0793   -0.7413 H         1 <0>        0.00000
     41 H14        -0.6693    1.7500    2.0965 H         1 <0>        0.00000
     42 H15         0.1205    0.2142    2.3639 H         1 <0>        0.00000
     43 H16         2.4229    2.7049   -1.9873 H         1 <0>        0.00000
     44 H17         2.8459    3.0209   -0.2937 H         1 <0>        0.00000
     45 H18         2.9943   -0.2840    1.6989 H         1 <0>        0.00000
     46 H19         2.7142   -1.4690    0.4087 H         1 <0>        0.00000
     47 H20         1.4043   -1.0528    1.5306 H         1 <0>        0.00000
     48 H21        -2.4374    0.7856    3.0494 H         1 <0>        0.00000
     49 H22        -3.3449    1.4226    1.6824 H         1 <0>        0.00000
     50 H23         4.7817    2.4182   -2.5321 H         1 <0>        0.00000
     51 H24         4.8620    3.6440   -1.2210 H         1 <0>        0.00000
     52 H25        -2.7723   -2.1917    2.4937 H         1 <0>        0.00000
     53 H26        -1.2197   -1.3997    2.8246 H         1 <0>        0.00000
     54 H27        -1.4114   -2.4055    1.3757 H         1 <0>        0.00000
     55 H28        -5.4035   -1.3252   -0.3193 H         1 <0>        0.00000
     56 H29        -4.1432   -0.8473    3.5669 H         1 <0>        0.00000
     57 H30        -4.9234    0.7231    3.3184 H         1 <0>        0.00000
@<TRIPOS>BOND
     1    1    9 1
     2    1   24 1
     3    2   24 2
     4    3   27 2
     5    4    5 1
     6    4    7 1
     7    4    8 1
     8    4   28 1
     9    5    6 1
    10    5   10 1
    11    5   29 1
    12    6    9 1
    13    6   10 1
    14    6   30 1
    15    7    9 1
    16    7   14 1
    17    7   20 1
    18    8   11 1
    19    8   12 1
    20    8   31 1
    21    9   18 1
    22   11   13 1
    23   11   15 1
    24   11   32 1
    25   12   16 1
    26   12   17 1
    27   12   33 1
    28   13   15 1
    29   13   19 1
    30   13   34 1
    31   14   17 1
    32   16   19 1
    33   16   21 1
    34   16   23 1
    35   18   22 1
    36   19   25 2
    37   21   26 1
    38   22   24 1
    39   25   27 1
    40   26   27 1
    41   10   35 1
    42   10   36 1
    43   14   37 1
    44   14   38 1
    45   15   39 1
    46   15   40 1
    47   17   41 1
    48   17   42 1
    49   18   43 1
    50   18   44 1
    51   20   45 1
    52   20   46 1
    53   20   47 1
    54   21   48 1
    55   21   49 1
    56   22   50 1
    57   22   51 1
    58   23   52 1
    59   23   53 1
    60   23   54 1
    61   25   55 1
    62   26   56 1
    63   26   57 1
@<TRIPOS>SUBSTRUCTURE
     1 <0>         1 GROUP 0 A     ****
@<TRIPOS>MOLECULE
MiniDrugBank_214
   35    35     1     0     0
SMALL
NO_CHARGES

@<TRIPOS>ATOM
      1 C1         -1.6792   -3.1976    2.1732 C.ar      1 <0>        0.00000
      2 C2         -1.7111   -2.1233    1.2841 C.ar      1 <0>        0.00000
      3 C3         -1.8811   -2.9810    3.5363 C.ar      1 <0>        0.00000
      4 O1         -1.4512   -4.4570    1.7106 O.3       1 <0>        0.00000
      5 C4         -1.9447   -0.8324    1.7581 C.ar      1 <0>        0.00000
      6 C5         -2.1147   -1.6901    4.0103 C.ar      1 <0>        0.00000
      7 C6         -2.6031   -5.1905    1.3441 C.2       1 <0>        0.00000
      8 C7         -2.1465   -0.6158    3.1213 C.ar      1 <0>        0.00000
      9 N1         -1.9788    0.3467    0.7827 N.4       1 <0>        0.00000
     10 N2         -2.3268   -6.4792    0.8739 N.am      1 <0>        0.00000
     11 O2         -3.7345   -4.7162    1.4395 O.2       1 <0>        0.00000
     12 C8         -3.0899    0.1088   -0.2359 C.3       1 <0>        0.00000
     13 C9         -0.6221    0.4519    0.0918 C.3       1 <0>        0.00000
     14 C10        -2.2564    1.6723    1.4887 C.3       1 <0>        0.00000
     15 C11        -3.4132   -7.3549    0.4583 C.3       1 <0>        0.00000
     16 C12        -0.9806   -7.0311    0.7613 C.3       1 <0>        0.00000
     17 H1         -1.5533   -2.2960    0.2221 H         1 <0>        0.00000
     18 H2         -1.8579   -3.8140    4.2336 H         1 <0>        0.00000
     19 H3         -2.2721   -1.5216    5.0716 H         1 <0>        0.00000
     20 H4         -2.3289    0.3863    3.5002 H         1 <0>        0.00000
     21 H5         -3.0639    0.9650   -0.8890 H         1 <0>        0.00000
     22 H6         -2.8296   -0.8126   -0.7297 H         1 <0>        0.00000
     23 H7         -3.9959    0.0414    0.3431 H         1 <0>        0.00000
     24 H8         -0.7087    1.2926   -0.5760 H         1 <0>        0.00000
     25 H9          0.0890    0.6089    0.8857 H         1 <0>        0.00000
     26 H10        -0.4906   -0.4872   -0.4193 H         1 <0>        0.00000
     27 H11        -2.2557    2.4136    0.7077 H         1 <0>        0.00000
     28 H12        -3.2176    1.5465    1.9579 H         1 <0>        0.00000
     29 H13        -1.4498    1.7918    2.1922 H         1 <0>        0.00000
     30 H14        -3.6073   -7.2051   -0.6005 H         1 <0>        0.00000
     31 H15        -4.3055   -7.1175    1.0319 H         1 <0>        0.00000
     32 H16        -3.1291   -8.3890    0.6362 H         1 <0>        0.00000
     33 H17        -0.7236   -7.5289    1.6913 H         1 <0>        0.00000
     34 H18        -0.2801   -6.2240    0.5687 H         1 <0>        0.00000
     35 H19        -0.9554   -7.7434   -0.0580 H         1 <0>        0.00000
@<TRIPOS>BOND
     1    1    2 ar
     2    1    3 ar
     3    1    4 1
     4    2    5 ar
     5    3    6 ar
     6    4    7 1
     7    5    8 ar
     8    5    9 1
     9    7   10 am
    10    7   11 2
    11    9   12 1
    12    9   13 1
    13    9   14 1
    14   10   15 1
    15   10   16 1
    16    6    8 ar
    17    2   17 1
    18    3   18 1
    19    6   19 1
    20    8   20 1
    21   12   21 1
    22   12   22 1
    23   12   23 1
    24   13   24 1
    25   13   25 1
    26   13   26 1
    27   14   27 1
    28   14   28 1
    29   14   29 1
    30   15   30 1
    31   15   31 1
    32   15   32 1
    33   16   33 1
    34   16   34 1
    35   16   35 1
@<TRIPOS>SUBSTRUCTURE
     1 <0>         1 GROUP 0 A     ****
@<TRIPOS>MOLECULE
MiniDrugBank_215
   52    56     1     0     0
SMALL
NO_CHARGES

@<TRIPOS>ATOM
      1 O1          4.9228    2.0915   -1.5833 O.3       1 <0>        0.00000
      2 O2         -4.9114   -2.3436    0.6112 O.3       1 <0>        0.00000
      3 N1         -5.5827   -2.1830   -0.5948 N.ar      1 <0>        0.00000
      4 C1          2.4236    0.2812    0.4078 C.3       1 <0>        0.00000
      5 C2          2.7385    1.2892   -0.7199 C.3       1 <0>        0.00000
      6 C3          0.9769    0.3723    0.9114 C.3       1 <0>        0.00000
      7 C4          0.0079    0.0993   -0.2808 C.3       1 <0>        0.00000
      8 C5         -1.5125    0.1198    0.1371 C.3       1 <0>        0.00000
      9 C6          1.8148    0.9740   -1.9111 C.3       1 <0>        0.00000
     10 C7          4.2636    1.0236   -0.9183 C.3       1 <0>        0.00000
     11 C8          0.3296    1.0009   -1.5053 C.3       1 <0>        0.00000
     12 C9          3.5612    0.4936    1.4047 C.3       1 <0>        0.00000
     13 C10         0.7198   -0.6320    2.0426 C.3       1 <0>        0.00000
     14 C11         4.7826    0.8632    0.5366 C.3       1 <0>        0.00000
     15 C12        -1.7125   -0.7505    1.4146 C.2       1 <0>        0.00000
     16 C13         2.5134    2.7724   -0.3033 C.3       1 <0>        0.00000
     17 C14        -0.7191   -0.5543    2.5339 C.3       1 <0>        0.00000
     18 C15        -2.3664   -0.3839   -1.0963 C.3       1 <0>        0.00000
     19 C16        -1.9959    1.5483    0.4898 C.3       1 <0>        0.00000
     20 C17         4.5473   -0.2069   -1.6835 C.1       1 <0>        0.00000
     21 C18        -2.7449   -1.6030    1.5880 C.2       1 <0>        0.00000
     22 C19        -3.5825   -1.1230   -0.6844 C.ar      1 <0>        0.00000
     23 C20        -3.7072   -1.6983    0.5609 C.ar      1 <0>        0.00000
     24 C21        -4.7671   -1.4510   -1.3578 C.ar      1 <0>        0.00000
     25 C22         4.7751   -1.1956   -2.2987 C.1       1 <0>        0.00000
     26 H1          2.5487   -0.7402    0.0134 H         1 <0>        0.00000
     27 H2          0.7962    1.3758    1.3123 H         1 <0>        0.00000
     28 H3          0.2213   -0.9314   -0.6086 H         1 <0>        0.00000
     29 H4          4.5004    2.1901   -2.4536 H         1 <0>        0.00000
     30 H5          1.9864    1.6843   -2.7290 H         1 <0>        0.00000
     31 H6          2.0274   -0.0227   -2.3162 H         1 <0>        0.00000
     32 H7         -0.2579    0.6799   -2.3728 H         1 <0>        0.00000
     33 H8          0.0333    2.0350   -1.3061 H         1 <0>        0.00000
     34 H9          3.3349    1.3054    2.1051 H         1 <0>        0.00000
     35 H10         3.7563   -0.4071    1.9960 H         1 <0>        0.00000
     36 H11         0.9398   -1.6518    1.7008 H         1 <0>        0.00000
     37 H12         1.3888   -0.4296    2.8870 H         1 <0>        0.00000
     38 H13         5.5555    0.0894    0.6158 H         1 <0>        0.00000
     39 H14         5.2319    1.7923    0.9077 H         1 <0>        0.00000
     40 H15         2.7558    3.4022   -1.1454 H         1 <0>        0.00000
     41 H16         3.1593    2.9920    0.5328 H         1 <0>        0.00000
     42 H17         1.4778    2.8933   -0.0248 H         1 <0>        0.00000
     43 H18        -0.8599   -1.3020    3.3242 H         1 <0>        0.00000
     44 H19        -0.8951    0.4227    3.0004 H         1 <0>        0.00000
     45 H20        -2.6377    0.4525   -1.7518 H         1 <0>        0.00000
     46 H21        -1.7701   -1.0777   -1.7042 H         1 <0>        0.00000
     47 H22        -3.0403    1.5031    0.7677 H         1 <0>        0.00000
     48 H23        -1.8675    2.1825   -0.3770 H         1 <0>        0.00000
     49 H24        -1.4055    1.9210    1.3160 H         1 <0>        0.00000
     50 H25        -2.8815   -2.1700    2.5018 H         1 <0>        0.00000
     51 H26        -5.0717   -1.2010   -2.3633 H         1 <0>        0.00000
     52 H27         4.9796   -2.0831   -2.8508 H         1 <0>        0.00000
@<TRIPOS>BOND
     1    1   10 1
     2    2    3 1
     3    2   23 1
     4    3   24 2
     5    4    5 1
     6    4    6 1
     7    4   12 1
     8    4   26 1
     9    5    9 1
    10    5   10 1
    11    5   16 1
    12    6    7 1
    13    6   13 1
    14    6   27 1
    15    7    8 1
    16    7   11 1
    17    7   28 1
    18    8   15 1
    19    8   18 1
    20    8   19 1
    21    9   11 1
    22   10   14 1
    23   10   20 1
    24   12   14 1
    25   13   17 1
    26   15   17 1
    27   15   21 2
    28   18   22 1
    29   20   25 3
    30   21   23 1
    31   22   23 2
    32   22   24 1
    33    1   29 1
    34    9   30 1
    35    9   31 1
    36   11   32 1
    37   11   33 1
    38   12   34 1
    39   12   35 1
    40   13   36 1
    41   13   37 1
    42   14   38 1
    43   14   39 1
    44   16   40 1
    45   16   41 1
    46   16   42 1
    47   17   43 1
    48   17   44 1
    49   18   45 1
    50   18   46 1
    51   19   47 1
    52   19   48 1
    53   19   49 1
    54   21   50 1
    55   24   51 1
    56   25   52 1
@<TRIPOS>SUBSTRUCTURE
     1 <0>         1 GROUP 0 A     ****
@<TRIPOS>MOLECULE
MiniDrugBank_216
   38    42     1     0     0
SMALL
NO_CHARGES

@<TRIPOS>ATOM
      1 C1          3.0460   -4.5917    0.3084 C.ar      1 <0>        0.00000
      2 C2          2.8794   -3.3397    0.7628 C.ar      1 <0>        0.00000
      3 N1          1.8260   -2.5563    0.2776 N.pl3     1 <0>        0.00000
      4 C3          0.9275   -3.0410   -0.6791 C.ar      1 <0>        0.00000
      5 C4          1.1079   -4.3690   -1.1581 C.ar      1 <0>        0.00000
      6 C5          2.1244   -5.1136   -0.6847 C.ar      1 <0>        0.00000
      7 N2          1.5160   -1.2785    0.6277 N.ar      1 <0>        0.00000
      8 C6          0.4412   -0.9810   -0.1038 C.ar      1 <0>        0.00000
      9 C7          0.0290   -2.0344   -0.9337 C.ar      1 <0>        0.00000
     10 C8         -1.0595   -2.1347   -1.8622 C.ar      1 <0>        0.00000
     11 C9         -0.1680    0.3202    0.0158 C.ar      1 <0>        0.00000
     12 C10        -0.6667    0.7463    1.2468 C.ar      1 <0>        0.00000
     13 C11        -1.2557    2.0054    1.3626 C.ar      1 <0>        0.00000
     14 C12        -1.3460    2.8384    0.2475 C.ar      1 <0>        0.00000
     15 C13        -0.8472    2.4124   -0.9835 C.ar      1 <0>        0.00000
     16 C14        -0.2582    1.1533   -1.0994 C.ar      1 <0>        0.00000
     17 C15        -2.3641   -1.9766   -1.4157 C.ar      1 <0>        0.00000
     18 C16        -3.3315   -2.0910   -2.4099 C.ar      1 <0>        0.00000
     19 C17        -2.8988   -2.3425   -3.6978 C.ar      1 <0>        0.00000
     20 N3         -1.6247   -2.4898   -4.0932 N.ar      1 <0>        0.00000
     21 N4         -0.7008   -2.3815   -3.1496 N.ar      1 <0>        0.00000
     22 C18        -4.7338   -2.0254   -2.5283 C.ar      1 <0>        0.00000
     23 N5         -5.1576   -2.2190   -3.7823 N.ar      1 <0>        0.00000
     24 N6         -4.0173   -2.4094   -4.4717 N.pl3     1 <0>        0.00000
     25 N7         -5.5310   -1.7889   -1.4534 N.pl3     1 <0>        0.00000
     26 H1          3.8506   -5.2251    0.6617 H         1 <0>        0.00000
     27 H2          3.5324   -2.8924    1.5022 H         1 <0>        0.00000
     28 H3          0.4289   -4.7744   -1.9007 H         1 <0>        0.00000
     29 H4          2.2809   -6.1277   -1.0358 H         1 <0>        0.00000
     30 H5         -0.6032    0.1090    2.1258 H         1 <0>        0.00000
     31 H6         -1.6432    2.3374    2.3212 H         1 <0>        0.00000
     32 H7         -1.8040    3.8191    0.3378 H         1 <0>        0.00000
     33 H8         -0.9167    3.0614   -1.8517 H         1 <0>        0.00000
     34 H9          0.1270    0.8358   -2.0657 H         1 <0>        0.00000
     35 H10        -2.6131   -1.7810   -0.3795 H         1 <0>        0.00000
     36 H11        -4.0786   -2.5771   -5.4682 H         1 <0>        0.00000
     37 H12        -6.5483   -1.6942   -1.5469 H         1 <0>        0.00000
     38 H13        -5.1403   -1.6022   -0.5232 H         1 <0>        0.00000
@<TRIPOS>BOND
     1    1    2 2
     2    1    6 1
     3    2    3 1
     4    3    4 1
     5    3    7 1
     6    4    5 1
     7    4    9 2
     8    5    6 2
     9    7    8 2
    10    8    9 1
    11    8   11 1
    12    9   10 1
    13   10   17 ar
    14   10   21 ar
    15   11   12 ar
    16   11   16 ar
    17   12   13 ar
    18   13   14 ar
    19   14   15 ar
    20   15   16 ar
    21   17   18 ar
    22   18   19 ar
    23   18   22 1
    24   19   20 ar
    25   19   24 1
    26   20   21 ar
    27   22   23 2
    28   22   25 1
    29   23   24 1
    30    1   26 1
    31    2   27 1
    32    5   28 1
    33    6   29 1
    34   12   30 1
    35   13   31 1
    36   14   32 1
    37   15   33 1
    38   16   34 1
    39   17   35 1
    40   24   36 1
    41   25   37 1
    42   25   38 1
@<TRIPOS>SUBSTRUCTURE
     1 <0>         1 GROUP 0 A     ****
@<TRIPOS>MOLECULE
MiniDrugBank_217
   60    61     1     0     0
SMALL
NO_CHARGES

@<TRIPOS>ATOM
      1 O1         -4.2464   -1.2189    0.0990 O.2       1 <0>        0.00000
      2 C1         -4.8449   -2.2237    0.4693 C.2       1 <0>        0.00000
      3 C2         -5.9391   -2.2402    1.5258 C.3       1 <0>        0.00000
      4 C3         -6.9329   -3.3870    1.2225 C.3       1 <0>        0.00000
      5 C4         -7.5887   -3.2140   -0.1504 C.3       1 <0>        0.00000
      6 C5         -8.0128   -3.5549    2.2958 C.3       1 <0>        0.00000
      7 C6         -5.3445   -2.2639    2.9343 C.3       1 <0>        0.00000
      8 C7         -4.4690   -3.5025    3.1589 C.3       1 <0>        0.00000
      9 N1         -4.4641   -3.8586    4.6015 N.pl3     1 <0>        0.00000
     10 S1         -4.9456   -5.4241    5.0621 S.o2      1 <0>        0.00000
     11 O2         -6.2533   -5.7239    4.5126 O.2       1 <0>        0.00000
     12 O3         -4.6838   -5.5782    6.4802 O.2       1 <0>        0.00000
     13 C8         -3.7475   -6.4079    4.1910 C.3       1 <0>        0.00000
     14 C9         -3.0773   -3.0437    2.7336 C.3       1 <0>        0.00000
     15 C10        -3.0350   -1.5778    3.1467 C.3       1 <0>        0.00000
     16 N2         -4.4290   -1.1343    3.1379 N.am      1 <0>        0.00000
     17 C11        -4.8932    0.1484    3.3724 C.2       1 <0>        0.00000
     18 O4         -6.0814    0.4636    3.4325 O.2       1 <0>        0.00000
     19 C12        -3.8731    1.1982    3.5660 C.2       1 <0>        0.00000
     20 C13        -4.1713    2.4418    3.1976 C.2       1 <0>        0.00000
     21 C14        -3.2134    3.5838    3.3572 C.3       1 <0>        0.00000
     22 N3         -2.8948    4.2025    2.0707 N.3       1 <0>        0.00000
     23 C15        -1.8838    3.4108    1.3558 C.3       1 <0>        0.00000
     24 C16        -1.5749    4.0174   -0.0139 C.3       1 <0>        0.00000
     25 C17        -1.1386    5.4727    0.1101 C.3       1 <0>        0.00000
     26 C18        -2.1545    6.2660    0.9242 C.3       1 <0>        0.00000
     27 C19        -2.4452    5.5882    2.2641 C.3       1 <0>        0.00000
     28 H1         -6.4670   -1.2851    1.4020 H         1 <0>        0.00000
     29 H2         -6.1619   -2.1950    3.6624 H         1 <0>        0.00000
     30 H3         -4.8088   -4.3796    2.5992 H         1 <0>        0.00000
     31 H4         -4.6245   -3.2014    0.0059 H         1 <0>        0.00000
     32 H5         -6.3645   -4.3267    1.1890 H         1 <0>        0.00000
     33 H6         -8.2892   -4.0306   -0.3538 H         1 <0>        0.00000
     34 H7         -8.1526   -2.2757   -0.1912 H         1 <0>        0.00000
     35 H8         -6.8478   -3.1902   -0.9557 H         1 <0>        0.00000
     36 H9         -8.7009   -4.3719    2.0561 H         1 <0>        0.00000
     37 H10        -7.5550   -3.7853    3.2642 H         1 <0>        0.00000
     38 H11        -8.5975   -2.6379    2.4185 H         1 <0>        0.00000
     39 H12        -3.6986   -3.4240    5.1236 H         1 <0>        0.00000
     40 H13        -3.9589   -7.4487    4.4132 H         1 <0>        0.00000
     41 H14        -3.8619   -6.1968    3.1330 H         1 <0>        0.00000
     42 H15        -2.7660   -6.1169    4.5502 H         1 <0>        0.00000
     43 H16        -2.2623   -3.6203    3.1816 H         1 <0>        0.00000
     44 H17        -2.9832   -3.1171    1.6434 H         1 <0>        0.00000
     45 H18        -2.6460   -1.4585    4.1637 H         1 <0>        0.00000
     46 H19        -2.4345   -0.9741    2.4599 H         1 <0>        0.00000
     47 H20        -2.9328    0.9041    3.9971 H         1 <0>        0.00000
     48 H21        -5.1457    2.6763    2.7741 H         1 <0>        0.00000
     49 H22        -3.6781    4.3367    4.0033 H         1 <0>        0.00000
     50 H23        -2.2854    3.2657    3.8450 H         1 <0>        0.00000
     51 H24        -0.9588    3.3376    1.9424 H         1 <0>        0.00000
     52 H25        -2.2540    2.3904    1.2009 H         1 <0>        0.00000
     53 H26        -0.7874    3.4362   -0.5070 H         1 <0>        0.00000
     54 H27        -2.4655    3.9551   -0.6524 H         1 <0>        0.00000
     55 H28        -0.1587    5.5206    0.6007 H         1 <0>        0.00000
     56 H29        -1.0237    5.9173   -0.8846 H         1 <0>        0.00000
     57 H30        -1.7781    7.2807    1.0968 H         1 <0>        0.00000
     58 H31        -3.0861    6.3635    0.3523 H         1 <0>        0.00000
     59 H32        -3.2267    6.1634    2.7745 H         1 <0>        0.00000
     60 H33        -1.5481    5.6230    2.8958 H         1 <0>        0.00000
@<TRIPOS>BOND
     1    1    2 2
     2    2    3 1
     3    3    4 1
     4    3    7 1
     5    3   28 1
     6    4    5 1
     7    4    6 1
     8    7    8 1
     9    7   16 1
    10    7   29 1
    11    8    9 1
    12    8   14 1
    13    8   30 1
    14    9   10 1
    15   10   11 2
    16   10   12 2
    17   10   13 1
    18   14   15 1
    19   15   16 1
    20   16   17 am
    21   17   18 2
    22   17   19 1
    23   19   20 2
    24   20   21 1
    25   21   22 1
    26   22   23 1
    27   22   27 1
    28   23   24 1
    29   24   25 1
    30   25   26 1
    31   26   27 1
    32    2   31 1
    33    4   32 1
    34    5   33 1
    35    5   34 1
    36    5   35 1
    37    6   36 1
    38    6   37 1
    39    6   38 1
    40    9   39 1
    41   13   40 1
    42   13   41 1
    43   13   42 1
    44   14   43 1
    45   14   44 1
    46   15   45 1
    47   15   46 1
    48   19   47 1
    49   20   48 1
    50   21   49 1
    51   21   50 1
    52   23   51 1
    53   23   52 1
    54   24   53 1
    55   24   54 1
    56   25   55 1
    57   25   56 1
    58   26   57 1
    59   26   58 1
    60   27   59 1
    61   27   60 1
@<TRIPOS>SUBSTRUCTURE
     1 <0>         1 GROUP 0 A     ****
@<TRIPOS>MOLECULE
MiniDrugBank_218
   26    27     1     0     0
SMALL
NO_CHARGES

@<TRIPOS>ATOM
      1 C1         -0.4840   -5.5068   -6.0618 C.1       1 <0>        0.00000
      2 C2         -0.4819   -5.5549   -4.8622 C.1       1 <0>        0.00000
      3 C3         -0.4816   -5.6185   -3.3986 C.3       1 <0>        0.00000
      4 N1          0.2020   -4.4628   -2.8339 N.3       1 <0>        0.00000
      5 C4          0.2059   -4.5194   -1.3921 C.3       1 <0>        0.00000
      6 C5          1.3077   -5.4668   -0.8810 C.3       1 <0>        0.00000
      7 C6          2.5798   -4.6194   -0.7036 C.3       1 <0>        0.00000
      8 C7          1.9961   -3.2725   -0.4147 C.ar      1 <0>        0.00000
      9 C8          0.6543   -3.2121   -0.8124 C.ar      1 <0>        0.00000
     10 C9         -0.0783   -2.0442   -0.6725 C.ar      1 <0>        0.00000
     11 C10         2.6335   -2.1662    0.1214 C.ar      1 <0>        0.00000
     12 C11         1.8996   -0.9877    0.2719 C.ar      1 <0>        0.00000
     13 C12         0.5534   -0.9272   -0.1216 C.ar      1 <0>        0.00000
     14 H1         -0.7668   -4.8171   -1.0125 H         1 <0>        0.00000
     15 H2         -0.4854   -5.4641   -7.1259 H         1 <0>        0.00000
     16 H3          0.0171   -6.5310   -3.0577 H         1 <0>        0.00000
     17 H4         -1.5097   -5.6467   -3.0237 H         1 <0>        0.00000
     18 H5         -0.2726   -3.6121   -3.1350 H         1 <0>        0.00000
     19 H6          1.0062   -5.8584    0.1013 H         1 <0>        0.00000
     20 H7          1.4757   -6.3378   -1.5241 H         1 <0>        0.00000
     21 H8          3.1968   -4.9946    0.1175 H         1 <0>        0.00000
     22 H9          3.1651   -4.5865   -1.6282 H         1 <0>        0.00000
     23 H10        -1.1167   -1.9924   -0.9818 H         1 <0>        0.00000
     24 H11         3.6764   -2.2073    0.4164 H         1 <0>        0.00000
     25 H12         2.3755   -0.1065    0.6938 H         1 <0>        0.00000
     26 H13         0.0001    0.0001    0.0002 H         1 <0>        0.00000
@<TRIPOS>BOND
     1    1    2 3
     2    2    3 1
     3    3    4 1
     4    4    5 1
     5    5    6 1
     6    5    9 1
     7    5   14 1
     8    6    7 1
     9    7    8 1
    10    8    9 ar
    11    8   11 ar
    12    9   10 ar
    13   10   13 ar
    14   11   12 ar
    15   12   13 ar
    16    1   15 1
    17    3   16 1
    18    3   17 1
    19    4   18 1
    20    6   19 1
    21    6   20 1
    22    7   21 1
    23    7   22 1
    24   10   23 1
    25   11   24 1
    26   12   25 1
    27   13   26 1
@<TRIPOS>SUBSTRUCTURE
     1 <0>         1 GROUP 0 A     ****
@<TRIPOS>MOLECULE
1489
   44    46     1     0     0
SMALL
NO_CHARGES

@<TRIPOS>ATOM
      1 Cl1         2.8172   -3.1025    0.0000 Cl        1 <0>        0.00000
      2 O1          4.1516    1.6159    0.0000 O.3       1 <0>        0.00000
      3 O2          2.6107    1.6159    0.0000 O.2       1 <0>        0.00000
      4 O3          5.4391    0.9959    0.0000 O.2       1 <0>        0.00000
      5 N1          2.4543    0.2276    0.0000 N.am      1 <0>        0.00000
      6 N2          4.3081    0.2276    0.0000 N.2       1 <0>        0.00000
      7 N3          5.3323    2.4209    0.0000 N.am      1 <0>        0.00000
      8 C1          2.6379   -0.5767    0.0000 C.ar      1 <0>        0.00000
      9 C2          3.3812   -0.9346    0.0000 C.ar      1 <0>        0.00000
     10 C3          4.1245   -0.5767    0.0000 C.2       1 <0>        0.00000
     11 C4          3.7937    0.8726    0.0000 C.3       1 <0>        0.00000
     12 C5          2.9687    0.8726    0.0000 C.2       1 <0>        0.00000
     13 C6          4.7695   -1.0911    0.0000 C.ar      1 <0>        0.00000
     14 C7          1.9205   -1.0498    0.0000 C.ar      1 <0>        0.00000
     15 C8          3.4586   -1.7905    0.0000 C.ar      1 <0>        0.00000
     16 C9          1.6500    0.4112    0.0000 C.3       1 <0>        0.00000
     17 C10         1.9781   -1.9072    0.0000 C.ar      1 <0>        0.00000
     18 C11         2.7524   -2.2801    0.0000 C.ar      1 <0>        0.00000
     19 C12         5.5375   -0.7897    0.0000 C.ar      1 <0>        0.00000
     20 C13         4.6466   -1.9069    0.0000 C.ar      1 <0>        0.00000
     21 C14         6.1825   -1.3041    0.0000 C.ar      1 <0>        0.00000
     22 C15         5.2915   -2.4213    0.0000 C.ar      1 <0>        0.00000
     23 C16         4.9743    1.6776    0.0000 C.2       1 <0>        0.00000
     24 C17         6.0595   -2.1198    0.0000 C.ar      1 <0>        0.00000
     25 C18         6.1550    2.4825    0.0000 C.3       1 <0>        0.00000
     26 C19         4.8676    3.1025    0.0000 C.3       1 <0>        0.00000
     27 H1          3.7937    0.8726    0.0000 H         1 <0>        0.00000
     28 H2          1.9205   -1.0498    0.0000 H         1 <0>        0.00000
     29 H3          3.4586   -1.7905    0.0000 H         1 <0>        0.00000
     30 H4          1.6500    0.4112    0.0000 H         1 <0>        0.00000
     31 H5          1.6500    0.4112    0.0000 H         1 <0>        0.00000
     32 H6          1.6500    0.4112    0.0000 H         1 <0>        0.00000
     33 H7          1.9781   -1.9072    0.0000 H         1 <0>        0.00000
     34 H8          5.5375   -0.7897    0.0000 H         1 <0>        0.00000
     35 H9          4.6466   -1.9069    0.0000 H         1 <0>        0.00000
     36 H10         6.1825   -1.3041    0.0000 H         1 <0>        0.00000
     37 H11         5.2915   -2.4213    0.0000 H         1 <0>        0.00000
     38 H12         6.0595   -2.1198    0.0000 H         1 <0>        0.00000
     39 H13         6.1550    2.4825    0.0000 H         1 <0>        0.00000
     40 H14         6.1550    2.4825    0.0000 H         1 <0>        0.00000
     41 H15         6.1550    2.4825    0.0000 H         1 <0>        0.00000
     42 H16         4.8676    3.1025    0.0000 H         1 <0>        0.00000
     43 H17         4.8676    3.1025    0.0000 H         1 <0>        0.00000
     44 H18         4.8676    3.1025    0.0000 H         1 <0>        0.00000
@<TRIPOS>BOND
     1    1   18 1
     2    2   11 1
     3    2   23 1
     4    3   12 2
     5    4   23 2
     6    5    8 1
     7    5   12 am
     8    5   16 1
     9    6   10 2
    10    6   11 1
    11    7   23 am
    12    7   25 1
    13    7   26 1
    14    8    9 ar
    15    8   14 ar
    16    9   10 1
    17    9   15 ar
    18   10   13 1
    19   11   12 1
    20   13   19 ar
    21   13   20 ar
    22   14   17 ar
    23   15   18 ar
    24   17   18 ar
    25   19   21 ar
    26   20   22 ar
    27   21   24 ar
    28   22   24 ar
    29   11   27 1
    30   14   28 1
    31   15   29 1
    32   16   30 1
    33   16   31 1
    34   16   32 1
    35   17   33 1
    36   19   34 1
    37   20   35 1
    38   21   36 1
    39   22   37 1
    40   24   38 1
    41   25   39 1
    42   25   40 1
    43   25   41 1
    44   26   42 1
    45   26   43 1
    46   26   44 1
@<TRIPOS>SUBSTRUCTURE
     1 <0>         1 GROUP 0 A     ****
@<TRIPOS>MOLECULE
MiniDrugBank_220
   37    39     1     0     0
SMALL
NO_CHARGES

@<TRIPOS>ATOM
      1 C1         -2.4813    2.0071   -5.7942 C.1       1 <0>        0.00000
      2 C2         -1.8217    1.6760   -6.7411 C.1       1 <0>        0.00000
      3 C3         -1.0186    1.2726   -7.8947 C.3       1 <0>        0.00000
      4 C4         -0.2401    2.3284   -8.6045 C.3       1 <0>        0.00000
      5 C5          0.4659    1.3115   -7.7578 C.3       1 <0>        0.00000
      6 N1         -3.8058   -0.9715   -2.3185 N.am      1 <0>        0.00000
      7 C6         -4.7538   -0.7046   -3.2809 C.ar      1 <0>        0.00000
      8 O1         -5.7438   -1.4156   -3.4496 O.2       1 <0>        0.00000
      9 C7         -4.5226    0.5052   -4.1364 C.ar      1 <0>        0.00000
     10 C8         -3.4383    1.2775   -3.9401 C.ar      1 <0>        0.00000
     11 O2         -3.2072    2.3718   -4.7534 O.3       1 <0>        0.00000
     12 C9         -2.6786   -0.1680   -2.0885 C.ar      1 <0>        0.00000
     13 C10        -2.4648    0.9759   -2.8709 C.ar      1 <0>        0.00000
     14 C11        -1.3478    1.7723   -2.5758 C.ar      1 <0>        0.00000
     15 C12        -0.4650    1.4196   -1.5494 C.ar      1 <0>        0.00000
     16 C13        -0.6868    0.2706   -0.7963 C.ar      1 <0>        0.00000
     17 C14        -1.7967   -0.5250   -1.0622 C.ar      1 <0>        0.00000
     18 F1          0.5967    2.1938   -1.2887 F         1 <0>        0.00000
     19 C15        -5.5529    0.7565   -5.2007 C.3       1 <0>        0.00000
     20 C16        -5.5907   -0.4100   -6.1809 C.3       1 <0>        0.00000
     21 C17        -6.9244    0.9924   -4.5770 C.3       1 <0>        0.00000
     22 H1         -1.4557    0.4834   -8.4754 H         1 <0>        0.00000
     23 H2         -0.1544    2.2347   -9.6805 H         1 <0>        0.00000
     24 H3         -0.2637    3.3514   -8.2480 H         1 <0>        0.00000
     25 H4          0.9182    1.6543   -6.8347 H         1 <0>        0.00000
     26 H5          1.0257    0.5347   -8.2650 H         1 <0>        0.00000
     27 H6         -3.9346   -1.7896   -1.7297 H         1 <0>        0.00000
     28 H7         -1.1354    2.6860   -3.1236 H         1 <0>        0.00000
     29 H8          0.0002    0.0002   -0.0002 H         1 <0>        0.00000
     30 H9         -1.9698   -1.4157   -0.4637 H         1 <0>        0.00000
     31 H10        -5.2590    1.6621   -5.7416 H         1 <0>        0.00000
     32 H11        -6.3356   -0.2514   -6.9689 H         1 <0>        0.00000
     33 H12        -5.8371   -1.3473   -5.6697 H         1 <0>        0.00000
     34 H13        -4.6150   -0.5398   -6.6616 H         1 <0>        0.00000
     35 H14        -7.6816    1.1766   -5.3473 H         1 <0>        0.00000
     36 H15        -6.9182    1.8537   -3.8992 H         1 <0>        0.00000
     37 H16        -7.2403    0.1150   -4.0025 H         1 <0>        0.00000
@<TRIPOS>BOND
     1    1    2 3
     2    1   11 1
     3    2    3 1
     4    3    4 1
     5    3    5 1
     6    4    5 1
     7    6    7 am
     8    6   12 1
     9    7    8 2
    10    7    9 1
    11    9   10 2
    12    9   19 1
    13   10   11 1
    14   10   13 1
    15   12   13 ar
    16   12   17 ar
    17   13   14 ar
    18   14   15 ar
    19   15   16 ar
    20   15   18 1
    21   16   17 ar
    22   19   20 1
    23   19   21 1
    24    3   22 1
    25    4   23 1
    26    4   24 1
    27    5   25 1
    28    5   26 1
    29    6   27 1
    30   14   28 1
    31   16   29 1
    32   17   30 1
    33   19   31 1
    34   20   32 1
    35   20   33 1
    36   20   34 1
    37   21   35 1
    38   21   36 1
    39   21   37 1
@<TRIPOS>SUBSTRUCTURE
     1 <0>         1 GROUP 0 A     ****
@<TRIPOS>MOLECULE
MiniDrugBank_221
   55    59     1     0     0
SMALL
NO_CHARGES

@<TRIPOS>ATOM
      1 C1          4.4448   -4.7012    1.7130 C.ar      1 <0>        0.00000
      2 C2          5.6813   -4.1552    1.3741 C.ar      1 <0>        0.00000
      3 C3          3.2865   -4.2620    1.0705 C.ar      1 <0>        0.00000
      4 C4          5.7645   -3.1680    0.3914 C.ar      1 <0>        0.00000
      5 C5         -0.5486   -3.2165   -2.3763 C.ar      1 <0>        0.00000
      6 C6          1.3621    5.3058   -3.4361 C.3       1 <0>        0.00000
      7 C7          1.6640    6.5734   -2.6943 C.3       1 <0>        0.00000
      8 C8         -1.5368   -2.6136   -3.1544 C.ar      1 <0>        0.00000
      9 C9          0.2418    2.6634   -1.4039 C.3       1 <0>        0.00000
     10 C10        -1.6461    3.6956   -0.1846 C.3       1 <0>        0.00000
     11 C11        -0.7384    1.7451   -2.1297 C.3       1 <0>        0.00000
     12 C12        -2.6188    2.7712   -0.9109 C.3       1 <0>        0.00000
     13 C13        -0.8411   -1.5147   -0.6864 C.ar      1 <0>        0.00000
     14 C14         0.8558   -3.3116   -0.3103 C.3       1 <0>        0.00000
     15 C15        -0.2008   -2.6671   -1.1422 C.ar      1 <0>        0.00000
     16 C16         1.3577    5.3129   -1.9310 C.3       1 <0>        0.00000
     17 C17         3.3595   -3.2686    0.0797 C.ar      1 <0>        0.00000
     18 C18         4.6043   -2.7190   -0.2614 C.ar      1 <0>        0.00000
     19 C19        -1.8293   -0.9118   -1.4646 C.ar      1 <0>        0.00000
     20 C20        -2.1771   -1.4613   -2.6987 C.ar      1 <0>        0.00000
     21 C21         2.2422   -2.7899   -0.5956 C.ar      1 <0>        0.00000
     22 C22         4.6222   -1.7391   -1.2478 C.ar      1 <0>        0.00000
     23 C23         0.0502    5.1921   -1.1900 C.2       1 <0>        0.00000
     24 C24        -2.5007    0.3015   -0.9825 C.2       1 <0>        0.00000
     25 F1         -3.1251   -0.8898   -3.4548 F         1 <0>        0.00000
     26 N1          2.3049   -1.8352   -1.5490 N.ar      1 <0>        0.00000
     27 N2          3.5110   -1.3027   -1.8795 N.ar      1 <0>        0.00000
     28 N3         -0.4269    3.9002   -0.9732 N.am      1 <0>        0.00000
     29 N4         -1.9450    1.5374   -1.3173 N.am      1 <0>        0.00000
     30 O1          5.7982   -1.1562   -1.6378 O.3       1 <0>        0.00000
     31 O2         -0.5297    6.2157   -0.8186 O.2       1 <0>        0.00000
     32 O3         -3.5111    0.1306   -0.3021 O.2       1 <0>        0.00000
     33 H1          4.3824   -5.4693    2.4785 H         1 <0>        0.00000
     34 H2          6.5816   -4.4988    1.8751 H         1 <0>        0.00000
     35 H3          2.3376   -4.7077    1.3584 H         1 <0>        0.00000
     36 H4          6.7421   -2.7594    0.1468 H         1 <0>        0.00000
     37 H5         -0.0542   -4.1133   -2.7400 H         1 <0>        0.00000
     38 H6          0.4152    5.2419   -3.9582 H         1 <0>        0.00000
     39 H7          2.1823    4.8049   -3.9356 H         1 <0>        0.00000
     40 H8          2.6878    6.9271   -2.6929 H         1 <0>        0.00000
     41 H9          0.9196    7.3600   -2.7191 H         1 <0>        0.00000
     42 H10        -1.8069   -3.0410   -4.1155 H         1 <0>        0.00000
     43 H11         0.6197    2.1763   -0.4969 H         1 <0>        0.00000
     44 H12         1.0975    2.8671   -2.0502 H         1 <0>        0.00000
     45 H13        -2.1316    4.6509    0.0376 H         1 <0>        0.00000
     46 H14        -1.3366    3.2503    0.7686 H         1 <0>        0.00000
     47 H15        -1.0631    2.2033   -3.0717 H         1 <0>        0.00000
     48 H16        -0.2469    0.8003   -2.3738 H         1 <0>        0.00000
     49 H17        -3.4798    2.5526   -0.2715 H         1 <0>        0.00000
     50 H18        -2.9935    3.2498   -1.8236 H         1 <0>        0.00000
     51 H19        -0.5681   -1.0879    0.2763 H         1 <0>        0.00000
     52 H20         0.6217   -3.1763    0.7543 H         1 <0>        0.00000
     53 H21         0.8322   -4.3995   -0.4602 H         1 <0>        0.00000
     54 H22         2.1980    4.8277   -1.4446 H         1 <0>        0.00000
     55 H23         5.6263   -0.5007   -2.3287 H         1 <0>        0.00000
@<TRIPOS>BOND
     1    1    2 ar
     2    1    3 ar
     3    2    4 ar
     4    6    7 1
     5    5    8 ar
     6    9   11 1
     7   10   12 1
     8    5   15 ar
     9   13   15 ar
    10   14   15 1
    11    6   16 1
    12    7   16 1
    13    3   17 ar
    14    4   18 ar
    15   17   18 ar
    16   13   19 ar
    17    8   20 ar
    18   19   20 ar
    19   14   21 1
    20   17   21 ar
    21   18   22 ar
    22   16   23 1
    23   19   24 1
    24   20   25 1
    25   21   26 ar
    26   22   27 ar
    27   26   27 ar
    28    9   28 1
    29   10   28 1
    30   23   28 am
    31   11   29 1
    32   12   29 1
    33   24   29 am
    34   22   30 1
    35   23   31 2
    36   24   32 2
    37    1   33 1
    38    2   34 1
    39    3   35 1
    40    4   36 1
    41    5   37 1
    42    6   38 1
    43    6   39 1
    44    7   40 1
    45    7   41 1
    46    8   42 1
    47    9   43 1
    48    9   44 1
    49   10   45 1
    50   10   46 1
    51   11   47 1
    52   11   48 1
    53   12   49 1
    54   12   50 1
    55   13   51 1
    56   14   52 1
    57   14   53 1
    58   16   54 1
    59   30   55 1
@<TRIPOS>SUBSTRUCTURE
     1 <0>         1 GROUP 0 A     ****
@<TRIPOS>MOLECULE
MiniDrugBank_222
   14    15     1     0     0
SMALL
NO_CHARGES

@<TRIPOS>ATOM
      1 O1         -1.7593    1.8139    1.3567 O.3       1 <0>        0.00000
      2 C1         -0.8478    1.3054    0.4760 C.ar      1 <0>        0.00000
      3 N1         -0.3501    2.1414   -0.4636 N.ar      1 <0>        0.00000
      4 C2          0.5534    1.5977   -1.3202 C.ar      1 <0>        0.00000
      5 N2          1.0061    0.3263   -1.3378 N.ar      1 <0>        0.00000
      6 C3          0.4591   -0.4213   -0.3757 C.ar      1 <0>        0.00000
      7 C4         -0.4584   -0.0044    0.5498 C.ar      1 <0>        0.00000
      8 N3         -0.8441   -1.0183    1.4291 N.2       1 <0>        0.00000
      9 N4         -0.2105   -2.0750    1.1071 N.2       1 <0>        0.00000
     10 C5          0.6922   -1.8518   -0.0647 C.3       1 <0>        0.00000
     11 H1         -1.9291    2.7544    1.1722 H         1 <0>        0.00000
     12 H2          0.9558    2.2633   -2.0747 H         1 <0>        0.00000
     13 H3          1.7301   -2.0403    0.2229 H         1 <0>        0.00000
     14 H4          0.3945   -2.4997   -0.8935 H         1 <0>        0.00000
@<TRIPOS>BOND
     1    1    2 1
     2    2    3 ar
     3    3    4 ar
     4    4    5 ar
     5    5    6 ar
     6    6    7 ar
     7    2    7 ar
     8    7    8 1
     9    8    9 2
    10    9   10 1
    11    6   10 1
    12    1   11 1
    13    4   12 1
    14   10   13 1
    15   10   14 1
@<TRIPOS>SUBSTRUCTURE
     1 <0>         1 GROUP 0 A     ****
@<TRIPOS>MOLECULE
MiniDrugBank_223
   40    42     1     0     0
SMALL
NO_CHARGES

@<TRIPOS>ATOM
      1 S1          2.7464   -3.1147   -4.0758 S.3       1 <0>        0.00000
      2 N1          0.2164   -1.2726   -4.2679 N.3       1 <0>        0.00000
      3 C1          1.0618   -1.0814   -3.0924 C.3       1 <0>        0.00000
      4 C2          0.5194   -1.9623   -1.9335 C.3       1 <0>        0.00000
      5 C3          0.9271    0.4006   -2.6566 C.3       1 <0>        0.00000
      6 C4          1.2062   -1.6799   -0.5978 C.3       1 <0>        0.00000
      7 C5          1.5611    0.7148   -1.2977 C.3       1 <0>        0.00000
      8 C6          0.3772   -0.1515   -5.2045 C.3       1 <0>        0.00000
      9 C7         -1.1888   -1.4346   -3.8695 C.3       1 <0>        0.00000
     10 C8          1.0563   -0.2163   -0.2025 C.3       1 <0>        0.00000
     11 C9          2.4823   -1.5124   -3.5323 C.ar      1 <0>        0.00000
     12 C10        -0.4645   -0.3600   -6.4646 C.3       1 <0>        0.00000
     13 C11        -2.0818   -1.6849   -5.0857 C.3       1 <0>        0.00000
     14 C12        -1.9339   -0.5750   -6.1203 C.3       1 <0>        0.00000
     15 C13         3.6373   -0.7621   -3.5547 C.ar      1 <0>        0.00000
     16 C14         4.7539   -1.5123   -4.0243 C.ar      1 <0>        0.00000
     17 C15         4.4097   -2.8077   -4.3428 C.ar      1 <0>        0.00000
     18 H1         -0.5628   -1.8221   -1.8207 H         1 <0>        0.00000
     19 H2          0.6619   -3.0225   -2.1809 H         1 <0>        0.00000
     20 H3          1.3902    1.0533   -3.4166 H         1 <0>        0.00000
     21 H4         -0.1353    0.6956   -2.6315 H         1 <0>        0.00000
     22 H5          0.7805   -2.3160    0.1823 H         1 <0>        0.00000
     23 H6          2.2670   -1.9298   -0.6731 H         1 <0>        0.00000
     24 H7          2.6532    0.6247   -1.3776 H         1 <0>        0.00000
     25 H8          1.3580    1.7588   -1.0203 H         1 <0>        0.00000
     26 H9          0.0983    0.7983   -4.7290 H         1 <0>        0.00000
     27 H10         1.4283   -0.0683   -5.5066 H         1 <0>        0.00000
     28 H11        -1.2860   -2.2923   -3.1927 H         1 <0>        0.00000
     29 H12        -1.5460   -0.5491   -3.3271 H         1 <0>        0.00000
     30 H13         0.0040    0.0027    0.0137 H         1 <0>        0.00000
     31 H14         1.6161   -0.0294    0.7230 H         1 <0>        0.00000
     32 H15        -0.3631    0.5084   -7.1253 H         1 <0>        0.00000
     33 H16        -0.0872   -1.2290   -7.0186 H         1 <0>        0.00000
     34 H17        -1.8194   -2.6480   -5.5419 H         1 <0>        0.00000
     35 H18        -3.1282   -1.7567   -4.7680 H         1 <0>        0.00000
     36 H19        -2.3565    0.3555   -5.7218 H         1 <0>        0.00000
     37 H20        -2.4996   -0.8254   -7.0244 H         1 <0>        0.00000
     38 H21         3.6845    0.2754   -3.2488 H         1 <0>        0.00000
     39 H22         5.7586   -1.1227   -4.1228 H         1 <0>        0.00000
     40 H23         5.0555   -3.5883   -4.7194 H         1 <0>        0.00000
@<TRIPOS>BOND
     1    1   11 1
     2    1   17 1
     3    2    3 1
     4    2    8 1
     5    2    9 1
     6    3    4 1
     7    3    5 1
     8    3   11 1
     9    4    6 1
    10    5    7 1
    11    6   10 1
    12    7   10 1
    13    8   12 1
    14    9   13 1
    15   11   15 2
    16   12   14 1
    17   13   14 1
    18   15   16 1
    19   16   17 2
    20    4   18 1
    21    4   19 1
    22    5   20 1
    23    5   21 1
    24    6   22 1
    25    6   23 1
    26    7   24 1
    27    7   25 1
    28    8   26 1
    29    8   27 1
    30    9   28 1
    31    9   29 1
    32   10   30 1
    33   10   31 1
    34   12   32 1
    35   12   33 1
    36   13   34 1
    37   13   35 1
    38   14   36 1
    39   14   37 1
    40   15   38 1
    41   16   39 1
    42   17   40 1
@<TRIPOS>SUBSTRUCTURE
     1 <0>         1 GROUP 0 A     ****
@<TRIPOS>MOLECULE
MiniDrugBank_224
   29    29     1     0     0
SMALL
NO_CHARGES

@<TRIPOS>ATOM
      1 P1         -1.2933    1.9068    1.9235 P.3       1 <0>        0.00000
      2 O1         -2.2372    0.8279    2.6905 O.3       1 <0>        0.00000
      3 O2         -2.3894    3.0403    1.5307 O.3       1 <0>        0.00000
      4 O3         -0.2236    2.4510    2.8341 O.2       1 <0>        0.00000
      5 C1         -0.9005    1.1434    0.4034 C.2       1 <0>        0.00000
      6 C2          0.1808    0.3645    0.2619 C.2       1 <0>        0.00000
      7 C3          0.6077   -1.8274   -0.8455 C.3       1 <0>        0.00000
      8 C4          0.5676   -0.3119   -1.0220 C.3       1 <0>        0.00000
      9 S1          1.0759   -2.6407   -2.4007 S.3       1 <0>        0.00000
     10 O4         -1.2881   -4.5623   -2.4764 O.3       1 <0>        0.00000
     11 C5          1.0309   -6.9920   -1.0525 C.ar      1 <0>        0.00000
     12 C6         -0.1334   -6.4203   -1.5655 C.ar      1 <0>        0.00000
     13 C7         -0.1320   -5.0886   -1.9806 C.ar      1 <0>        0.00000
     14 C8          1.0336   -4.3286   -1.8826 C.ar      1 <0>        0.00000
     15 C9          2.1978   -4.9004   -1.3695 C.ar      1 <0>        0.00000
     16 C10         2.1965   -6.2321   -0.9545 C.ar      1 <0>        0.00000
     17 H1         -2.7434    1.1077    3.4831 H         1 <0>        0.00000
     18 H2         -2.9031    3.4671    2.2491 H         1 <0>        0.00000
     19 H3         -1.5531    1.3032   -0.4496 H         1 <0>        0.00000
     20 H4          0.8332    0.2107    1.1177 H         1 <0>        0.00000
     21 H5         -0.3728   -2.2087   -0.5406 H         1 <0>        0.00000
     22 H6          1.3334   -2.1126   -0.0762 H         1 <0>        0.00000
     23 H7         -0.1332   -0.0422   -1.8221 H         1 <0>        0.00000
     24 H8          1.5547    0.0641   -1.3187 H         1 <0>        0.00000
     25 H9         -1.1617   -3.6313   -2.7306 H         1 <0>        0.00000
     26 H10         1.0299   -8.0287   -0.7295 H         1 <0>        0.00000
     27 H11        -1.0376   -7.0186   -1.6387 H         1 <0>        0.00000
     28 H12         3.1171   -4.3259   -1.2843 H         1 <0>        0.00000
     29 H13         3.1028   -6.6776   -0.5548 H         1 <0>        0.00000
@<TRIPOS>BOND
     1    1    2 1
     2    1    3 1
     3    1    4 2
     4    1    5 1
     5    5    6 2
     6    6    8 1
     7    7    8 1
     8    7    9 1
     9    9   14 1
    10   10   13 1
    11   11   12 ar
    12   11   16 ar
    13   12   13 ar
    14   13   14 ar
    15   14   15 ar
    16   15   16 ar
    17    2   17 1
    18    3   18 1
    19    5   19 1
    20    6   20 1
    21    7   21 1
    22    7   22 1
    23    8   23 1
    24    8   24 1
    25   10   25 1
    26   11   26 1
    27   12   27 1
    28   15   28 1
    29   16   29 1
@<TRIPOS>SUBSTRUCTURE
     1 <0>         1 GROUP 0 A     ****
@<TRIPOS>MOLECULE
MiniDrugBank_225
   29    29     1     0     0
SMALL
NO_CHARGES

@<TRIPOS>ATOM
      1 P1         -1.2933    1.9068    1.9235 P.3       1 <0>        0.00000
      2 O1         -0.2240    2.3065    2.9066 O.2       1 <0>        0.00000
      3 O2         -2.3907    0.9195    2.6049 O.3       1 <0>        0.00000
      4 O3         -2.2358    3.1638    1.5083 O.3       1 <0>        0.00000
      5 C1          0.1808    0.3645    0.2619 C.2       1 <0>        0.00000
      6 C2          0.6077   -1.8274   -0.8455 C.3       1 <0>        0.00000
      7 C3          2.1971   -4.8996   -1.3670 C.ar      1 <0>        0.00000
      8 C4          1.0336   -4.3286   -1.8826 C.ar      1 <0>        0.00000
      9 C5         -0.1321   -5.0885   -1.9802 C.ar      1 <0>        0.00000
     10 O4         -1.2874   -4.5631   -2.4794 O.3       1 <0>        0.00000
     11 C6         -0.1342   -6.4193   -1.5624 C.ar      1 <0>        0.00000
     12 C7          1.0293   -6.9903   -1.0468 C.ar      1 <0>        0.00000
     13 C8          2.1950   -6.2304   -0.9491 C.ar      1 <0>        0.00000
     14 F1          3.3124   -6.7791   -0.4545 F         1 <0>        0.00000
     15 S1          1.0759   -2.6407   -2.4007 S.3       1 <0>        0.00000
     16 C9          0.5676   -0.3119   -1.0220 C.3       1 <0>        0.00000
     17 C10        -0.9005    1.1434    0.4034 C.2       1 <0>        0.00000
     18 H1         -2.9074    1.2333    3.3776 H         1 <0>        0.00000
     19 H2         -2.7398    3.6264    2.2113 H         1 <0>        0.00000
     20 H3          0.8332    0.2107    1.1177 H         1 <0>        0.00000
     21 H4         -0.3728   -2.2087   -0.5406 H         1 <0>        0.00000
     22 H5          1.3334   -2.1126   -0.0762 H         1 <0>        0.00000
     23 H6          3.1165   -4.3255   -1.2824 H         1 <0>        0.00000
     24 H7         -1.1511   -3.6369   -2.7316 H         1 <0>        0.00000
     25 H8         -1.0385   -7.0175   -1.6351 H         1 <0>        0.00000
     26 H9          1.0283   -8.0265   -0.7218 H         1 <0>        0.00000
     27 H10        -0.1332   -0.0422   -1.8221 H         1 <0>        0.00000
     28 H11         1.5547    0.0641   -1.3187 H         1 <0>        0.00000
     29 H12        -1.5531    1.3032   -0.4496 H         1 <0>        0.00000
@<TRIPOS>BOND
     1    1    2 2
     2    1    3 1
     3    1    4 1
     4    1   17 1
     5    5   16 1
     6    5   17 2
     7    6   15 1
     8    6   16 1
     9    7    8 ar
    10    7   13 ar
    11    8    9 ar
    12    8   15 1
    13    9   10 1
    14    9   11 ar
    15   11   12 ar
    16   12   13 ar
    17   13   14 1
    18    3   18 1
    19    4   19 1
    20    5   20 1
    21    6   21 1
    22    6   22 1
    23    7   23 1
    24   10   24 1
    25   11   25 1
    26   12   26 1
    27   16   27 1
    28   16   28 1
    29   17   29 1
@<TRIPOS>SUBSTRUCTURE
     1 <0>         1 GROUP 0 A     ****
@<TRIPOS>MOLECULE
MiniDrugBank_226
   30    29     1     0     0
SMALL
NO_CHARGES

@<TRIPOS>ATOM
      1 N1          7.2849    3.3809    0.0000 N.3       1 <0>        0.00000
      2 C1          7.2849    2.5559    0.0000 C.3       1 <0>        0.00000
      3 C2          6.5704    2.1434    0.0000 C.3       1 <0>        0.00000
      4 C3          5.8559    2.5559    0.0000 C.3       1 <0>        0.00000
      5 C4          5.1414    2.1434    0.0000 C.3       1 <0>        0.00000
      6 C5          4.4270    2.5559    0.0000 C.3       1 <0>        0.00000
      7 N2          3.7125    2.1434    0.0000 N.pl3     1 <0>        0.00000
      8 C6          2.9980    2.5559    0.0000 C.2       1 <0>        0.00000
      9 N3          2.2836    2.1434    0.0000 N.4       1 <0>        0.00000
     10 N4          2.9980    3.3809    0.0000 N.2       1 <0>        0.00000
     11 C7          7.9993    2.1434    0.0000 C.2       1 <0>        0.00000
     12 O1          8.7138    2.5559    0.0000 O.3       1 <0>        0.00000
     13 O2          7.9993    1.3184    0.0000 O.2       1 <0>        0.00000
     14 H1          7.2849    3.3809    0.0000 H         1 <0>        0.00000
     15 H2          7.2849    3.3809    0.0000 H         1 <0>        0.00000
     16 H3          7.2849    2.5559    0.0000 H         1 <0>        0.00000
     17 H4          6.5704    2.1434    0.0000 H         1 <0>        0.00000
     18 H5          6.5704    2.1434    0.0000 H         1 <0>        0.00000
     19 H6          5.8559    2.5559    0.0000 H         1 <0>        0.00000
     20 H7          5.8559    2.5559    0.0000 H         1 <0>        0.00000
     21 H8          5.1414    2.1434    0.0000 H         1 <0>        0.00000
     22 H9          5.1414    2.1434    0.0000 H         1 <0>        0.00000
     23 H10         4.4270    2.5559    0.0000 H         1 <0>        0.00000
     24 H11         4.4270    2.5559    0.0000 H         1 <0>        0.00000
     25 H12         3.7125    2.1434    0.0000 H         1 <0>        0.00000
     26 H13         2.2836    2.1434    0.0000 H         1 <0>        0.00000
     27 H14         2.2836    2.1434    0.0000 H         1 <0>        0.00000
     28 H15         2.2836    2.1434    0.0000 H         1 <0>        0.00000
     29 H16         2.9980    3.3809    0.0000 H         1 <0>        0.00000
     30 H17         8.7138    2.5559    0.0000 H         1 <0>        0.00000
@<TRIPOS>BOND
     1    1    2 1
     2    2    3 1
     3    3    4 1
     4    4    5 1
     5    5    6 1
     6    6    7 1
     7    7    8 1
     8    8    9 1
     9    8   10 2
    10    2   11 1
    11   11   12 1
    12   11   13 2
    13    1   14 1
    14    1   15 1
    15    2   16 1
    16    3   17 1
    17    3   18 1
    18    4   19 1
    19    4   20 1
    20    5   21 1
    21    5   22 1
    22    6   23 1
    23    6   24 1
    24    7   25 1
    25    9   26 1
    26    9   27 1
    27    9   28 1
    28   10   29 1
    29   12   30 1
@<TRIPOS>SUBSTRUCTURE
     1 <0>         1 GROUP 0 A     ****
@<TRIPOS>MOLECULE
MiniDrugBank_227
   81    83     1     0     0
SMALL
NO_CHARGES

@<TRIPOS>ATOM
      1 C1          6.9509   -7.3006   -7.5276 C.3       1 <0>        0.00000
      2 C2          7.4663   -6.3639   -6.4369 C.3       1 <0>        0.00000
      3 N1          8.2936   -7.0848   -5.4967 N.am      1 <0>        0.00000
      4 C3          9.6436   -7.3329   -5.7031 C.2       1 <0>        0.00000
      5 O1         10.2829   -6.9760   -6.6905 O.2       1 <0>        0.00000
      6 C4         10.2508   -8.1610   -4.5762 C.3       1 <0>        0.00000
      7 C5         10.1392   -9.6565   -4.8942 C.3       1 <0>        0.00000
      8 C6         10.2943  -10.5264   -3.6708 C.ar      1 <0>        0.00000
      9 C7          9.1735  -10.8790   -2.9191 C.ar      1 <0>        0.00000
     10 C8          9.3169  -11.6829   -1.7882 C.ar      1 <0>        0.00000
     11 C9         10.5811  -12.1343   -1.4091 C.ar      1 <0>        0.00000
     12 O2         10.7099  -12.9187   -0.3036 O.3       1 <0>        0.00000
     13 C10        10.2778  -12.3656    0.9383 C.3       1 <0>        0.00000
     14 C11        11.0956  -12.9477    2.0520 C.2       1 <0>        0.00000
     15 O3         10.6912  -12.4270    3.2379 O.3       1 <0>        0.00000
     16 O4         11.9951  -13.7666    1.9367 O.2       1 <0>        0.00000
     17 C12        11.7019  -11.7817   -2.1608 C.ar      1 <0>        0.00000
     18 C13        11.5586  -10.9778   -3.2917 C.ar      1 <0>        0.00000
     19 P1         13.3139  -12.3426   -1.6976 P.3       1 <0>        0.00000
     20 O5         13.5549  -11.7472   -0.2097 O.3       1 <0>        0.00000
     21 O6         13.1369  -13.9247   -1.3937 O.3       1 <0>        0.00000
     22 O7         14.4495  -12.0515   -2.6337 O.2       1 <0>        0.00000
     23 N2         11.6200   -7.7369   -4.4256 N.am      1 <0>        0.00000
     24 C14        12.0019   -6.6709   -3.6298 C.2       1 <0>        0.00000
     25 C15        13.4718   -6.4108   -3.6207 C.3       1 <0>        0.00000
     26 O8         11.2585   -5.9603   -2.9633 O.2       1 <0>        0.00000
     27 C16         6.3652   -5.6366   -5.7422 C.ar      1 <0>        0.00000
     28 C17         6.3269   -4.2425   -5.7664 C.ar      1 <0>        0.00000
     29 C18         5.2972   -3.5617   -5.1169 C.ar      1 <0>        0.00000
     30 C19         4.3057   -4.2750   -4.4432 C.ar      1 <0>        0.00000
     31 O9          3.3036   -3.5877   -3.8107 O.3       1 <0>        0.00000
     32 C20         3.6292   -2.2997   -3.3102 C.3       1 <0>        0.00000
     33 C21         2.7698   -2.0119   -2.0806 C.3       1 <0>        0.00000
     34 C22         3.0247   -3.0557   -0.9848 C.3       1 <0>        0.00000
     35 C23         2.2158   -2.7587    0.2758 C.3       1 <0>        0.00000
     36 C24         2.4726   -1.3454    0.7893 C.3       1 <0>        0.00000
     37 C25         2.2233   -0.3009   -0.2942 C.3       1 <0>        0.00000
     38 C26         3.0321   -0.5938   -1.5559 C.3       1 <0>        0.00000
     39 C27         4.3439   -5.6691   -4.4191 C.ar      1 <0>        0.00000
     40 C28         5.3736   -6.3499   -5.0686 C.ar      1 <0>        0.00000
     41 C29         3.3184   -6.4327   -3.7218 C.2       1 <0>        0.00000
     42 N3          3.5377   -6.7348   -2.3819 N.am      1 <0>        0.00000
     43 O10         2.2906   -6.8169   -4.3045 O.2       1 <0>        0.00000
     44 H1          6.3223   -6.7623   -8.2454 H         1 <0>        0.00000
     45 H2          7.7873   -7.7471   -8.0770 H         1 <0>        0.00000
     46 H3          6.3605   -8.1260   -7.1139 H         1 <0>        0.00000
     47 H4          8.1347   -5.6353   -6.9120 H         1 <0>        0.00000
     48 H5          7.8516   -7.4209   -4.6460 H         1 <0>        0.00000
     49 H6          9.7425   -7.9153   -3.6364 H         1 <0>        0.00000
     50 H7         10.8859   -9.9420   -5.6476 H         1 <0>        0.00000
     51 H8          9.1671   -9.8795   -5.3536 H         1 <0>        0.00000
     52 H9          8.1845  -10.5318   -3.2063 H         1 <0>        0.00000
     53 H10         8.4393  -11.9528   -1.2071 H         1 <0>        0.00000
     54 H11        10.4304  -11.2883    0.8905 H         1 <0>        0.00000
     55 H12         9.2230  -12.6025    1.0708 H         1 <0>        0.00000
     56 H13         9.9569  -11.7862    3.1251 H         1 <0>        0.00000
     57 H14        12.4344  -10.7049   -3.8747 H         1 <0>        0.00000
     58 H15        14.3363  -12.0567    0.2961 H         1 <0>        0.00000
     59 H16        13.8849  -14.4073   -0.9821 H         1 <0>        0.00000
     60 H17        12.3329   -8.2582   -4.9308 H         1 <0>        0.00000
     61 H18        13.7793   -5.7073   -4.4111 H         1 <0>        0.00000
     62 H19        13.8123   -5.9552   -2.6770 H         1 <0>        0.00000
     63 H20        14.1085   -7.2991   -3.7597 H         1 <0>        0.00000
     64 H21         7.0953   -3.6784   -6.2884 H         1 <0>        0.00000
     65 H22         5.2741   -2.4755   -5.1389 H         1 <0>        0.00000
     66 H23         4.6914   -2.2813   -3.0488 H         1 <0>        0.00000
     67 H24         3.4398   -1.5591   -4.0929 H         1 <0>        0.00000
     68 H25         1.7160   -2.0786   -2.3825 H         1 <0>        0.00000
     69 H26         2.7665   -4.0558   -1.3531 H         1 <0>        0.00000
     70 H27         4.0923   -3.0772   -0.7307 H         1 <0>        0.00000
     71 H28         1.1471   -2.8808    0.0605 H         1 <0>        0.00000
     72 H29         2.4690   -3.4853    1.0563 H         1 <0>        0.00000
     73 H30         1.8270   -1.1434    1.6516 H         1 <0>        0.00000
     74 H31         3.5093   -1.2674    1.1392 H         1 <0>        0.00000
     75 H32         1.1550   -0.2798   -0.5425 H         1 <0>        0.00000
     76 H33         2.4818    0.6936    0.0871 H         1 <0>        0.00000
     77 H34         2.7790    0.1435   -2.3271 H         1 <0>        0.00000
     78 H35         4.1001   -0.4686   -1.3359 H         1 <0>        0.00000
     79 H36         5.4057   -7.4371   -5.0517 H         1 <0>        0.00000
     80 H37         4.3807   -6.4605   -1.8890 H         1 <0>        0.00000
     81 H38         2.8683   -7.2779   -1.8461 H         1 <0>        0.00000
@<TRIPOS>BOND
     1    1    2 1
     2    2    3 1
     3    3    4 am
     4    4    5 2
     5    4    6 1
     6    6    7 1
     7    7    8 1
     8    8    9 ar
     9    9   10 ar
    10   10   11 ar
    11   11   12 1
    12   12   13 1
    13   13   14 1
    14   14   15 1
    15   14   16 2
    16   11   17 ar
    17   17   18 ar
    18    8   18 ar
    19   17   19 1
    20   19   20 1
    21   19   21 1
    22   19   22 2
    23    6   23 1
    24   23   24 am
    25   24   25 1
    26   24   26 2
    27    2   27 1
    28   27   28 ar
    29   28   29 ar
    30   29   30 ar
    31   30   31 1
    32   31   32 1
    33   32   33 1
    34   33   34 1
    35   34   35 1
    36   35   36 1
    37   36   37 1
    38   37   38 1
    39   33   38 1
    40   30   39 ar
    41   39   40 ar
    42   27   40 ar
    43   39   41 1
    44   41   42 am
    45   41   43 2
    46    1   44 1
    47    1   45 1
    48    1   46 1
    49    2   47 1
    50    3   48 1
    51    6   49 1
    52    7   50 1
    53    7   51 1
    54    9   52 1
    55   10   53 1
    56   13   54 1
    57   13   55 1
    58   15   56 1
    59   18   57 1
    60   20   58 1
    61   21   59 1
    62   23   60 1
    63   25   61 1
    64   25   62 1
    65   25   63 1
    66   28   64 1
    67   29   65 1
    68   32   66 1
    69   32   67 1
    70   33   68 1
    71   34   69 1
    72   34   70 1
    73   35   71 1
    74   35   72 1
    75   36   73 1
    76   36   74 1
    77   37   75 1
    78   37   76 1
    79   38   77 1
    80   38   78 1
    81   40   79 1
    82   42   80 1
    83   42   81 1
@<TRIPOS>SUBSTRUCTURE
     1 <0>         1 GROUP 0 A     ****
@<TRIPOS>MOLECULE
MiniDrugBank_228
   42    43     1     0     0
SMALL
NO_CHARGES

@<TRIPOS>ATOM
      1 C1          0.7931   -1.0309    0.4487 C.3       1 <0>        0.00000
      2 N1         -0.3954   -1.5841   -0.2246 N.2       1 <0>        0.00000
      3 C2         -1.3106   -0.7701   -0.6701 C.2       1 <0>        0.00000
      4 N2         -1.2523    0.6123   -0.5549 N.2       1 <0>        0.00000
      5 C3         -0.2331    1.1607    0.0551 C.2       1 <0>        0.00000
      6 N3          0.7806    0.4070    0.5821 N.pl3     1 <0>        0.00000
      7 O1          1.8609    1.0317    1.1742 O.3       1 <0>        0.00000
      8 C4          1.6573    1.1408    2.5994 C.3       1 <0>        0.00000
      9 C5          2.5716    2.2267    3.1214 C.3       1 <0>        0.00000
     10 C6          4.0301    1.8972    2.8445 C.3       1 <0>        0.00000
     11 O2          4.3772    0.6741    3.4798 O.3       1 <0>        0.00000
     12 C7          5.3502   -0.0807    2.8779 C.ar      1 <0>        0.00000
     13 C8          6.3565    0.5400    2.1380 C.ar      1 <0>        0.00000
     14 C9          7.3466   -0.2283    1.5255 C.ar      1 <0>        0.00000
     15 C10         5.3339   -1.4697    3.0055 C.ar      1 <0>        0.00000
     16 C11         6.3240   -2.2379    2.3930 C.ar      1 <0>        0.00000
     17 C12         7.3304   -1.6172    1.6530 C.ar      1 <0>        0.00000
     18 C13         2.0090   -1.4589   -0.3818 C.3       1 <0>        0.00000
     19 C14         0.8522   -1.6765    1.8388 C.3       1 <0>        0.00000
     20 N4         -2.4164   -1.2907   -1.3001 N.pl3     1 <0>        0.00000
     21 N5         -0.1243    2.5203    0.2013 N.pl3     1 <0>        0.00000
     22 Br1         8.6719   -2.6581    0.8232 Br        1 <0>        0.00000
     23 H1          1.8887    0.1720    3.0361 H         1 <0>        0.00000
     24 H2          0.6092    1.3819    2.7607 H         1 <0>        0.00000
     25 H3          2.3140    3.1945    2.6724 H         1 <0>        0.00000
     26 H4          2.4161    2.3723    4.1981 H         1 <0>        0.00000
     27 H5          4.6876    2.6791    3.2369 H         1 <0>        0.00000
     28 H6          4.2192    1.7964    1.7709 H         1 <0>        0.00000
     29 H7          6.3742    1.6215    2.0348 H         1 <0>        0.00000
     30 H8          8.1237    0.2711    0.9524 H         1 <0>        0.00000
     31 H9          4.5527   -1.9589    3.5810 H         1 <0>        0.00000
     32 H10         6.2969   -3.3191    2.5021 H         1 <0>        0.00000
     33 H11         2.9156   -1.0730    0.0765 H         1 <0>        0.00000
     34 H12         1.9172   -1.0637   -1.3899 H         1 <0>        0.00000
     35 H13         2.0576   -2.5438   -0.4217 H         1 <0>        0.00000
     36 H14         1.7167   -1.2985    2.3776 H         1 <0>        0.00000
     37 H15         0.9342   -2.7549    1.7344 H         1 <0>        0.00000
     38 H16        -0.0522   -1.4339    2.3899 H         1 <0>        0.00000
     39 H17        -3.1039   -0.6587   -1.6336 H         1 <0>        0.00000
     40 H18        -2.4793   -2.2759   -1.3942 H         1 <0>        0.00000
     41 H19        -0.8462    3.0919   -0.1708 H         1 <0>        0.00000
     42 H20         0.6720    2.8799    0.6735 H         1 <0>        0.00000
@<TRIPOS>BOND
     1    1    2 1
     2    1    6 1
     3    1   18 1
     4    1   19 1
     5    2    3 2
     6    3    4 1
     7    3   20 1
     8    4    5 2
     9    5    6 1
    10    5   21 1
    11    6    7 1
    12    7    8 1
    13    8    9 1
    14    9   10 1
    15   10   11 1
    16   11   12 1
    17   12   13 ar
    18   12   15 ar
    19   13   14 ar
    20   14   17 ar
    21   15   16 ar
    22   16   17 ar
    23   17   22 1
    24    8   23 1
    25    8   24 1
    26    9   25 1
    27    9   26 1
    28   10   27 1
    29   10   28 1
    30   13   29 1
    31   14   30 1
    32   15   31 1
    33   16   32 1
    34   18   33 1
    35   18   34 1
    36   18   35 1
    37   19   36 1
    38   19   37 1
    39   19   38 1
    40   20   39 1
    41   20   40 1
    42   21   41 1
    43   21   42 1
@<TRIPOS>SUBSTRUCTURE
     1 <0>         1 GROUP 0 A     ****
@<TRIPOS>MOLECULE
MiniDrugBank_229
   25    24     1     0     0
SMALL
NO_CHARGES

@<TRIPOS>ATOM
      1 N1         -0.6251   -2.3417    0.7875 N.3       1 <0>        0.00000
      2 C1         -0.7331   -1.1182   -0.0034 C.3       1 <0>        0.00000
      3 C2          0.3092   -0.0951    0.4727 C.3       1 <0>        0.00000
      4 C3          0.2420    1.2152   -0.3256 C.3       1 <0>        0.00000
      5 C4          1.2749    2.2351    0.1428 C.3       1 <0>        0.00000
      6 N2          1.0512    2.5595    1.5525 N.2       1 <0>        0.00000
      7 C5          1.8603    3.4136    2.0721 C.2       1 <0>        0.00000
      8 N3          2.9193    4.0879    1.5245 N.pl3     1 <0>        0.00000
      9 S1          1.5788    3.7964    3.7750 S.3       1 <0>        0.00000
     10 C6         -0.5168   -1.5330   -1.4472 C.2       1 <0>        0.00000
     11 O1         -1.1911   -0.7338   -2.3157 O.3       1 <0>        0.00000
     12 O2          0.1607   -2.4850   -1.8121 O.2       1 <0>        0.00000
     13 H1         -1.0879   -2.3923    1.6815 H         1 <0>        0.00000
     14 H2          0.0643   -3.0322    0.5341 H         1 <0>        0.00000
     15 H3         -1.7333   -0.6841    0.1084 H         1 <0>        0.00000
     16 H4          0.1359    0.1281    1.5334 H         1 <0>        0.00000
     17 H5          1.3212   -0.5144    0.3987 H         1 <0>        0.00000
     18 H6          0.4183    1.0103   -1.3877 H         1 <0>        0.00000
     19 H7         -0.7645    1.6435   -0.2422 H         1 <0>        0.00000
     20 H8          2.2919    1.8520    0.0096 H         1 <0>        0.00000
     21 H9          1.1814    3.1527   -0.4472 H         1 <0>        0.00000
     22 H10         3.1944    3.9647    0.5565 H         1 <0>        0.00000
     23 H11         3.4660    4.7381    2.0788 H         1 <0>        0.00000
     24 H12         0.5225    2.9881    3.9463 H         1 <0>        0.00000
     25 H13        -1.6988   -0.0035   -1.9019 H         1 <0>        0.00000
@<TRIPOS>BOND
     1    1    2 1
     2    2    3 1
     3    3    4 1
     4    4    5 1
     5    5    6 1
     6    6    7 2
     7    7    8 1
     8    7    9 1
     9    2   10 1
    10   10   11 1
    11   10   12 2
    12    1   13 1
    13    1   14 1
    14    2   15 1
    15    3   16 1
    16    3   17 1
    17    4   18 1
    18    4   19 1
    19    5   20 1
    20    5   21 1
    21    8   22 1
    22    8   23 1
    23    9   24 1
    24   11   25 1
@<TRIPOS>SUBSTRUCTURE
     1 <0>         1 GROUP 0 A     ****
@<TRIPOS>MOLECULE
MiniDrugBank_230
   32    32     1     0     0
SMALL
NO_CHARGES

@<TRIPOS>ATOM
      1 C1         -3.1695    0.4909   -3.8740 C.ar      1 <0>        0.00000
      2 C2         -3.8940    1.1063   -4.8948 C.ar      1 <0>        0.00000
      3 C3         -5.1177    1.7135   -4.6133 C.ar      1 <0>        0.00000
      4 Cl1        -6.0106    2.4722   -5.8739 Cl        1 <0>        0.00000
      5 C4         -5.6172    1.7052   -3.3109 C.ar      1 <0>        0.00000
      6 C5         -4.8927    1.0898   -2.2900 C.ar      1 <0>        0.00000
      7 Cl2        -5.5336    1.0936   -0.6885 Cl        1 <0>        0.00000
      8 C6         -3.6689    0.4826   -2.5716 C.ar      1 <0>        0.00000
      9 O1         -2.9365   -0.1290   -1.5887 O.3       1 <0>        0.00000
     10 C7         -0.9852   -0.4243   -0.2314 C.3       1 <0>        0.00000
     11 C8         -1.6316    0.3823   -1.3512 C.3       1 <0>        0.00000
     12 C9         -0.8612   -1.9049   -0.5660 C.3       1 <0>        0.00000
     13 N1         -0.0630   -2.1395   -1.7382 N.3       1 <0>        0.00000
     14 C10         1.3742   -2.0740   -1.4300 C.3       1 <0>        0.00000
     15 C11        -0.3752   -3.4418   -2.3478 C.3       1 <0>        0.00000
     16 C12        -1.5885   -3.3300   -3.1427 C.1       1 <0>        0.00000
     17 C13        -2.5874   -3.2638   -3.8056 C.1       1 <0>        0.00000
     18 H1         -2.2171    0.0193   -4.1004 H         1 <0>        0.00000
     19 H2         -3.4931    1.1046   -5.9052 H         1 <0>        0.00000
     20 H3         -6.5720    2.1788   -3.0924 H         1 <0>        0.00000
     21 H4         -1.5833   -0.3081    0.6811 H         1 <0>        0.00000
     22 H5          0.0000    0.0000    0.0000 H         1 <0>        0.00000
     23 H6         -1.7198    1.4387   -1.0795 H         1 <0>        0.00000
     24 H7         -1.0522    0.2989   -2.2762 H         1 <0>        0.00000
     25 H8         -0.3798   -2.4381    0.2596 H         1 <0>        0.00000
     26 H9         -1.8451   -2.3538   -0.7358 H         1 <0>        0.00000
     27 H10         1.9277   -2.2566   -2.3415 H         1 <0>        0.00000
     28 H11         1.6023   -2.8308   -0.6910 H         1 <0>        0.00000
     29 H12         1.5983   -1.0890   -1.0424 H         1 <0>        0.00000
     30 H13         0.4757   -3.7325   -2.9553 H         1 <0>        0.00000
     31 H14        -0.4938   -4.1624   -1.5448 H         1 <0>        0.00000
     32 H15        -3.4732   -3.2046   -4.3938 H         1 <0>        0.00000
@<TRIPOS>BOND
     1    1    2 ar
     2    1    8 ar
     3    2    3 ar
     4    3    4 1
     5    3    5 ar
     6    5    6 ar
     7    6    7 1
     8    6    8 ar
     9    8    9 1
    10    9   11 1
    11   10   11 1
    12   10   12 1
    13   12   13 1
    14   13   14 1
    15   13   15 1
    16   15   16 1
    17   16   17 3
    18    1   18 1
    19    2   19 1
    20    5   20 1
    21   10   21 1
    22   10   22 1
    23   11   23 1
    24   11   24 1
    25   12   25 1
    26   12   26 1
    27   14   27 1
    28   14   28 1
    29   14   29 1
    30   15   30 1
    31   15   31 1
    32   17   32 1
@<TRIPOS>SUBSTRUCTURE
     1 <0>         1 GROUP 0 A     ****
@<TRIPOS>MOLECULE
MiniDrugBank_231
   54    54     1     0     0
SMALL
NO_CHARGES

@<TRIPOS>ATOM
      1 C1          3.7803   -9.7340    2.1086 C.3       1 <0>        0.00000
      2 C2          3.9128   -6.5687   -3.8548 C.3       1 <0>        0.00000
      3 C3          7.2049   -4.7812   -2.7966 C.3       1 <0>        0.00000
      4 C4          0.8827   -0.9379   -0.6600 C.2       1 <0>        0.00000
      5 C5         -1.0094   -1.5100    3.7985 C.3       1 <0>        0.00000
      6 C6          3.9231   -8.4510    1.3459 C.2       1 <0>        0.00000
      7 C7          5.2826   -5.9348   -3.9371 C.2       1 <0>        0.00000
      8 C8          0.7731   -1.9038    0.4943 C.3       1 <0>        0.00000
      9 C9         -0.3129   -2.7847    3.3221 C.3       1 <0>        0.00000
     10 C10         3.6555   -4.2758    0.0368 C.ar      1 <0>        0.00000
     11 C11         3.7966   -5.3435    0.9231 C.ar      1 <0>        0.00000
     12 C12         4.3340   -4.2866   -1.1819 C.ar      1 <0>        0.00000
     13 C13         5.2949   -6.4329   -0.6279 C.ar      1 <0>        0.00000
     14 C14         4.6163   -6.4221    0.5908 C.ar      1 <0>        0.00000
     15 C15         5.1537   -5.3651   -1.5142 C.ar      1 <0>        0.00000
     16 C16        -0.6737   -2.3083    0.7927 C.3       1 <0>        0.00000
     17 C17        -0.8354   -3.2961    1.9667 C.3       1 <0>        0.00000
     18 C18         2.7840   -3.1310    0.3907 C.2       1 <0>        0.00000
     19 I1          2.7689   -5.3372    2.7846 I         1 <0>        0.00000
     20 I2          4.1201   -2.6569   -2.5366 I         1 <0>        0.00000
     21 I3          6.5451   -8.0809   -1.1241 I         1 <0>        0.00000
     22 N1          4.7591   -7.4980    1.4840 N.2       1 <0>        0.00000
     23 N2          1.5382   -3.0891    0.0941 N.2       1 <0>        0.00000
     24 N3          5.8376   -5.3767   -2.7385 N.am      1 <0>        0.00000
     25 O1         -0.0902   -0.5271   -1.2856 O.2       1 <0>        0.00000
     26 O2         -0.4780   -1.1003    5.0482 O.3       1 <0>        0.00000
     27 O3          2.9923   -8.3383    0.3705 O.3       1 <0>        0.00000
     28 O4          5.8636   -5.9570   -5.0250 O.2       1 <0>        0.00000
     29 O5         -0.4946   -3.7979    4.3084 O.3       1 <0>        0.00000
     30 O6         -1.2350   -2.9157   -0.3788 O.3       1 <0>        0.00000
     31 O7         -2.2323   -3.5966    2.0876 O.3       1 <0>        0.00000
     32 O8          3.4750   -2.1714    1.0476 O.3       1 <0>        0.00000
     33 H1          1.2494   -1.4626    1.3752 H         1 <0>        0.00000
     34 H2          0.7609   -2.5854    3.2346 H         1 <0>        0.00000
     35 H3         -1.2706   -1.4062    0.9767 H         1 <0>        0.00000
     36 H4         -0.3488   -4.2454    1.7147 H         1 <0>        0.00000
     37 H5          3.1086   -9.6017    2.9621 H         1 <0>        0.00000
     38 H6          3.3604  -10.5084    1.4613 H         1 <0>        0.00000
     39 H7          4.7547  -10.0530    2.4876 H         1 <0>        0.00000
     40 H8          3.1382   -5.8237   -4.0552 H         1 <0>        0.00000
     41 H9          3.7641   -7.0318   -2.8758 H         1 <0>        0.00000
     42 H10         3.8291   -7.3518   -4.6153 H         1 <0>        0.00000
     43 H11         7.1419   -3.7192   -3.0473 H         1 <0>        0.00000
     44 H12         7.8056   -5.2873   -3.5572 H         1 <0>        0.00000
     45 H13         7.7039   -4.8855   -1.8294 H         1 <0>        0.00000
     46 H14         1.9022   -0.6159   -0.9341 H         1 <0>        0.00000
     47 H15        -0.8973   -0.6969    3.0730 H         1 <0>        0.00000
     48 H16        -2.0839   -1.6892    3.9159 H         1 <0>        0.00000
     49 H17        -0.9510   -0.2914    5.3053 H         1 <0>        0.00000
     50 H18         2.4044   -9.1133    0.3483 H         1 <0>        0.00000
     51 H19        -0.0431   -4.5895    3.9771 H         1 <0>        0.00000
     52 H20        -0.6842   -3.6875   -0.5698 H         1 <0>        0.00000
     53 H21        -2.3013   -4.2774    2.7712 H         1 <0>        0.00000
     54 H22         4.4135   -2.3811    1.1802 H         1 <0>        0.00000
@<TRIPOS>BOND
     1    1    6 1
     2    2    7 1
     3    4    8 1
     4    5    9 1
     5   10   11 ar
     6   10   12 ar
     7   11   14 ar
     8   13   14 ar
     9   12   15 ar
    10   13   15 ar
    11    8   16 1
    12    9   17 1
    13   16   17 1
    14   10   18 1
    15   11   19 1
    16   12   20 1
    17   13   21 1
    18    6   22 2
    19   14   22 1
    20    8   23 1
    21   18   23 2
    22    3   24 1
    23    7   24 am
    24   15   24 1
    25    4   25 2
    26    5   26 1
    27    6   27 1
    28    7   28 2
    29    9   29 1
    30   16   30 1
    31   17   31 1
    32   18   32 1
    33    8   33 1
    34    9   34 1
    35   16   35 1
    36   17   36 1
    37    1   37 1
    38    1   38 1
    39    1   39 1
    40    2   40 1
    41    2   41 1
    42    2   42 1
    43    3   43 1
    44    3   44 1
    45    3   45 1
    46    4   46 1
    47    5   47 1
    48    5   48 1
    49   26   49 1
    50   27   50 1
    51   29   51 1
    52   30   52 1
    53   31   53 1
    54   32   54 1
@<TRIPOS>SUBSTRUCTURE
     1 <0>         1 GROUP 0 A     ****
@<TRIPOS>MOLECULE
MiniDrugBank_232
   42    45     1     0     0
SMALL
NO_CHARGES

@<TRIPOS>ATOM
      1 C1         -0.2589   -6.1682    3.1963 C.3       1 <0>        0.00000
      2 C2          0.5389   -7.1099    4.0955 C.3       1 <0>        0.00000
      3 C3          1.8187   -7.5510    3.3949 C.3       1 <0>        0.00000
      4 C4          2.7129   -6.3465    3.1035 C.3       1 <0>        0.00000
      5 C5          2.6591   -4.1312    1.9176 C.ar      1 <0>        0.00000
      6 C6          2.6529   -1.9560    0.7904 C.ar      1 <0>        0.00000
      7 C7          1.9457   -0.8685    0.2860 C.ar      1 <0>        0.00000
      8 C8          0.5608   -0.8440    0.3907 C.ar      1 <0>        0.00000
      9 C9         -0.1120   -1.9061    0.9997 C.ar      1 <0>        0.00000
     10 N1         -0.1078   -4.0098    2.0953 N.ar      1 <0>        0.00000
     11 C10         0.5780   -5.0700    2.5947 C.ar      1 <0>        0.00000
     12 C11         1.9639   -5.1826    2.5151 C.ar      1 <0>        0.00000
     13 C12         1.9742   -3.0242    1.4018 C.ar      1 <0>        0.00000
     14 C13         0.5715   -3.0050    1.5128 C.ar      1 <0>        0.00000
     15 N2          4.0759   -4.1902    1.8456 N.pl3     1 <0>        0.00000
     16 I1          9.3838   -6.8997    3.3008 I         1 <0>        0.00000
     17 C14         4.9186   -3.6689    2.8698 C.3       1 <0>        0.00000
     18 C15         6.3806   -3.8531    2.5592 C.ar      1 <0>        0.00000
     19 C16         7.0428   -5.0088    2.9732 C.ar      1 <0>        0.00000
     20 C17         8.3968   -5.1782    2.6842 C.ar      1 <0>        0.00000
     21 C18         9.0887   -4.1919    1.9811 C.ar      1 <0>        0.00000
     22 C19         8.4264   -3.0362    1.5670 C.ar      1 <0>        0.00000
     23 C20         7.0724   -2.8668    1.8561 C.ar      1 <0>        0.00000
     24 H1         -0.7033   -6.7408    2.3729 H         1 <0>        0.00000
     25 H2         -1.0827   -5.7301    3.7720 H         1 <0>        0.00000
     26 H3          0.7903   -6.6054    5.0371 H         1 <0>        0.00000
     27 H4         -0.0727   -7.9825    4.3499 H         1 <0>        0.00000
     28 H5          2.3621   -8.2717    4.0160 H         1 <0>        0.00000
     29 H6          1.5646   -8.0615    2.4573 H         1 <0>        0.00000
     30 H7          3.1826   -6.0152    4.0384 H         1 <0>        0.00000
     31 H8          3.5095   -6.6767    2.4266 H         1 <0>        0.00000
     32 H9          3.7358   -1.9473    0.6931 H         1 <0>        0.00000
     33 H10         2.4728   -0.0446   -0.1855 H         1 <0>        0.00000
     34 H11         0.0005    0.0003    0.0001 H         1 <0>        0.00000
     35 H12        -1.1973   -1.8629    1.0712 H         1 <0>        0.00000
     36 H13         4.4626   -4.6193    1.0314 H         1 <0>        0.00000
     37 H14         4.6678   -4.1683    3.8164 H         1 <0>        0.00000
     38 H15         4.6849   -2.6034    3.0023 H         1 <0>        0.00000
     39 H16         6.4930   -5.7712    3.5210 H         1 <0>        0.00000
     40 H17        10.1439   -4.3036    1.7450 H         1 <0>        0.00000
     41 H18         8.9647   -2.2680    1.0193 H         1 <0>        0.00000
     42 H19         6.5650   -1.9631    1.5292 H         1 <0>        0.00000
@<TRIPOS>BOND
     1    1    2 1
     2    1   11 1
     3    2    3 1
     4    3    4 1
     5    4   12 1
     6    5   12 ar
     7    5   13 ar
     8    5   15 1
     9    6    7 ar
    10    6   13 ar
    11    7    8 ar
    12    8    9 ar
    13    9   14 ar
    14   10   11 ar
    15   10   14 ar
    16   11   12 ar
    17   13   14 ar
    18   15   17 1
    19   16   20 1
    20   17   18 1
    21   18   19 ar
    22   18   23 ar
    23   19   20 ar
    24   20   21 ar
    25   21   22 ar
    26   22   23 ar
    27    1   24 1
    28    1   25 1
    29    2   26 1
    30    2   27 1
    31    3   28 1
    32    3   29 1
    33    4   30 1
    34    4   31 1
    35    6   32 1
    36    7   33 1
    37    8   34 1
    38    9   35 1
    39   15   36 1
    40   17   37 1
    41   17   38 1
    42   19   39 1
    43   21   40 1
    44   22   41 1
    45   23   42 1
@<TRIPOS>SUBSTRUCTURE
     1 <0>         1 GROUP 0 A     ****
@<TRIPOS>MOLECULE
1594
   38    40     1     0     0
SMALL
NO_CHARGES

@<TRIPOS>ATOM
      1 Cl1         4.6690   -2.3783    0.0000 Cl        1 <0>        0.00000
      2 F1          5.7303   -1.4841    0.0000 F         1 <0>        0.00000
      3 O1          6.0034    2.3401    0.0000 O.3       1 <0>        0.00000
      4 O2          4.4625    2.3401    0.0000 O.2       1 <0>        0.00000
      5 N1          4.3060    0.9518    0.0000 N.am      1 <0>        0.00000
      6 N2          6.1598    0.9518    0.0000 N.2       1 <0>        0.00000
      7 N3          1.6500    2.2908    0.0000 N.1       1 <0>        0.00000
      8 C1          4.4897    0.1475    0.0000 C.ar      1 <0>        0.00000
      9 C2          5.2329   -0.2105    0.0000 C.ar      1 <0>        0.00000
     10 C3          3.5018    1.1354    0.0000 C.3       1 <0>        0.00000
     11 C4          5.9762    0.1475    0.0000 C.2       1 <0>        0.00000
     12 C5          4.8204    1.5968    0.0000 C.2       1 <0>        0.00000
     13 C6          5.6454    1.5968    0.0000 C.3       1 <0>        0.00000
     14 C7          3.7723   -0.3256    0.0000 C.ar      1 <0>        0.00000
     15 C8          5.3104   -1.0663    0.0000 C.ar      1 <0>        0.00000
     16 C9          6.6212   -0.3669    0.0000 C.ar      1 <0>        0.00000
     17 C10         3.2586    1.9237    0.0000 C.3       1 <0>        0.00000
     18 C11         3.8299   -1.1830    0.0000 C.ar      1 <0>        0.00000
     19 C12         4.6041   -1.5559    0.0000 C.ar      1 <0>        0.00000
     20 C13         6.4983   -1.1827    0.0000 C.ar      1 <0>        0.00000
     21 C14         7.3892   -0.0655    0.0000 C.ar      1 <0>        0.00000
     22 C15         7.1433   -1.6971    0.0000 C.ar      1 <0>        0.00000
     23 C16         8.0342   -0.5799    0.0000 C.ar      1 <0>        0.00000
     24 C17         7.9113   -1.3956    0.0000 C.ar      1 <0>        0.00000
     25 C18         2.4543    2.1073    0.0000 C.1       1 <0>        0.00000
     26 H1          6.0034    2.3401    0.0000 H         1 <0>        0.00000
     27 H2          3.5018    1.1354    0.0000 H         1 <0>        0.00000
     28 H3          3.5018    1.1354    0.0000 H         1 <0>        0.00000
     29 H4          5.6454    1.5968    0.0000 H         1 <0>        0.00000
     30 H5          3.7723   -0.3256    0.0000 H         1 <0>        0.00000
     31 H6          5.3104   -1.0663    0.0000 H         1 <0>        0.00000
     32 H7          3.2586    1.9237    0.0000 H         1 <0>        0.00000
     33 H8          3.2586    1.9237    0.0000 H         1 <0>        0.00000
     34 H9          3.8299   -1.1830    0.0000 H         1 <0>        0.00000
     35 H10         7.3892   -0.0655    0.0000 H         1 <0>        0.00000
     36 H11         7.1433   -1.6971    0.0000 H         1 <0>        0.00000
     37 H12         8.0342   -0.5799    0.0000 H         1 <0>        0.00000
     38 H13         7.9113   -1.3956    0.0000 H         1 <0>        0.00000
@<TRIPOS>BOND
     1    1   19 1
     2    2   20 1
     3    3   13 1
     4    4   12 2
     5    5    8 1
     6    5   10 1
     7    5   12 am
     8    6   11 2
     9    6   13 1
    10    7   25 3
    11    8    9 ar
    12    8   14 ar
    13    9   11 1
    14    9   15 ar
    15   10   17 1
    16   11   16 1
    17   12   13 1
    18   14   18 ar
    19   15   19 ar
    20   16   20 ar
    21   16   21 ar
    22   17   25 1
    23   18   19 ar
    24   20   22 ar
    25   21   23 ar
    26   22   24 ar
    27   23   24 ar
    28    3   26 1
    29   10   27 1
    30   10   28 1
    31   13   29 1
    32   14   30 1
    33   15   31 1
    34   17   32 1
    35   17   33 1
    36   18   34 1
    37   21   35 1
    38   22   36 1
    39   23   37 1
    40   24   38 1
@<TRIPOS>SUBSTRUCTURE
     1 <0>         1 GROUP 0 A     ****
@<TRIPOS>MOLECULE
MiniDrugBank_234
   28    28     1     0     0
SMALL
NO_CHARGES

@<TRIPOS>ATOM
      1 C1         -0.2880    0.1641   -0.1673 C.2       1 <0>        0.00000
      2 O1         -0.9333    1.0958    0.2947 O.2       1 <0>        0.00000
      3 C2          1.8851   -1.0363   -0.1124 C.ar      1 <0>        0.00000
      4 C3          0.8066   -0.4630    0.5610 C.ar      1 <0>        0.00000
      5 C4          0.7638   -0.4841    1.9551 C.ar      1 <0>        0.00000
      6 C5          1.7997   -1.0786    2.6757 C.ar      1 <0>        0.00000
      7 C6          2.8783   -1.6520    2.0022 C.ar      1 <0>        0.00000
      8 C7          2.9210   -1.6309    0.6081 C.ar      1 <0>        0.00000
      9 N1          1.7570   -1.1006    4.0852 N.pl3     1 <0>        0.00000
     10 C8          1.3140   -2.2407   -2.2458 C.2       1 <0>        0.00000
     11 C9          1.9567   -1.0273   -1.6047 C.3       1 <0>        0.00000
     12 O2          1.4275   -2.1452   -3.6045 O.3       1 <0>        0.00000
     13 O3          0.7791   -3.1562   -1.6352 O.2       1 <0>        0.00000
     14 C10         1.0626   -2.9814   -5.8246 C.3       1 <0>        0.00000
     15 C11         0.8598   -3.2285   -4.3479 C.3       1 <0>        0.00000
     16 Br1         0.1957   -1.3163   -6.3566 Br        1 <0>        0.00000
     17 H1         -0.5123   -0.2445   -1.1673 H         1 <0>        0.00000
     18 H2         -0.0770   -0.0371    2.4815 H         1 <0>        0.00000
     19 H3          3.6913   -2.1171    2.5539 H         1 <0>        0.00000
     20 H4          3.7656   -2.0807    0.0929 H         1 <0>        0.00000
     21 H5          1.0024   -0.6453    4.5577 H         1 <0>        0.00000
     22 H6          2.5282   -1.4878    4.5905 H         1 <0>        0.00000
     23 H7          1.4592   -0.1287   -2.0011 H         1 <0>        0.00000
     24 H8          3.0070   -0.9850   -1.9316 H         1 <0>        0.00000
     25 H9          2.1169   -2.8721   -6.0915 H         1 <0>        0.00000
     26 H10         0.5983   -3.7673   -6.4254 H         1 <0>        0.00000
     27 H11        -0.1947   -3.3169   -4.0784 H         1 <0>        0.00000
     28 H12         1.3834   -4.1374   -4.0448 H         1 <0>        0.00000
@<TRIPOS>BOND
     1    1    2 2
     2    1    4 1
     3    3    4 ar
     4    3    8 ar
     5    3   11 1
     6    4    5 ar
     7    5    6 ar
     8    6    7 ar
     9    6    9 1
    10    7    8 ar
    11   10   11 1
    12   10   12 1
    13   10   13 2
    14   12   15 1
    15   14   15 1
    16   14   16 1
    17    1   17 1
    18    5   18 1
    19    7   19 1
    20    8   20 1
    21    9   21 1
    22    9   22 1
    23   11   23 1
    24   11   24 1
    25   14   25 1
    26   14   26 1
    27   15   27 1
    28   15   28 1
@<TRIPOS>SUBSTRUCTURE
     1 <0>         1 GROUP 0 A     ****
@<TRIPOS>MOLECULE
MiniDrugBank_235
   39    40     1     0     0
SMALL
NO_CHARGES

@<TRIPOS>ATOM
      1 F1         -3.0837    3.4384    2.2771 F         1 <0>        0.00000
      2 C1         -3.9371    4.4709    2.2113 C.ar      1 <0>        0.00000
      3 C2         -3.4354    5.7605    2.0357 C.ar      1 <0>        0.00000
      4 C3         -4.3093    6.8454    1.9664 C.ar      1 <0>        0.00000
      5 F2         -3.8275    8.0839    1.7993 F         1 <0>        0.00000
      6 C4         -5.6850    6.6408    2.0728 C.ar      1 <0>        0.00000
      7 C5         -6.1867    5.3512    2.2484 C.ar      1 <0>        0.00000
      8 C6         -5.3128    4.2662    2.3176 C.ar      1 <0>        0.00000
      9 C7         -5.8378    2.9304    2.5006 C.ar      1 <0>        0.00000
     10 C8         -5.5915    1.9475    1.5420 C.ar      1 <0>        0.00000
     11 C9         -6.5896    2.6252    3.6352 C.ar      1 <0>        0.00000
     12 C10        -7.0953    1.3371    3.8111 C.ar      1 <0>        0.00000
     13 I1         -8.2161    0.9355    5.5305 I         1 <0>        0.00000
     14 C11        -6.8491    0.3543    2.8524 C.ar      1 <0>        0.00000
     15 O1         -7.3346   -0.9128    3.0050 O.3       1 <0>        0.00000
     16 C12        -6.0972    0.6595    1.7179 C.ar      1 <0>        0.00000
     17 C13        -5.8207   -0.3690    0.6821 C.2       1 <0>        0.00000
     18 O2         -6.7615   -0.9016    0.0992 O.2       1 <0>        0.00000
     19 N1         -4.4830   -0.6342    0.4359 N.am      1 <0>        0.00000
     20 C14        -4.0533   -1.5900   -0.5587 C.3       1 <0>        0.00000
     21 C15        -3.8691   -0.9131   -1.9124 C.3       1 <0>        0.00000
     22 C16        -2.8352    0.1926   -1.8856 C.2       1 <0>        0.00000
     23 O3         -1.8592    0.2304   -1.1493 O.2       1 <0>        0.00000
     24 O4         -3.1655    1.1280   -2.8252 O.3       1 <0>        0.00000
     25 C17        -2.2686    2.2383   -2.9314 C.3       1 <0>        0.00000
     26 H1         -2.3647    5.9206    1.9525 H         1 <0>        0.00000
     27 H2         -6.3646    7.4860    2.0179 H         1 <0>        0.00000
     28 H3         -7.2617    5.2079    2.3292 H         1 <0>        0.00000
     29 H4         -5.0052    2.1825    0.6555 H         1 <0>        0.00000
     30 H5         -6.7770    3.3980    4.3783 H         1 <0>        0.00000
     31 H6         -7.8342   -0.9794    3.8327 H         1 <0>        0.00000
     32 H7         -3.7586   -0.1081    0.9137 H         1 <0>        0.00000
     33 H8         -3.1230   -2.0642   -0.2285 H         1 <0>        0.00000
     34 H9         -4.8140   -2.3730   -0.6407 H         1 <0>        0.00000
     35 H10        -3.5313   -1.6596   -2.6402 H         1 <0>        0.00000
     36 H11        -4.8211   -0.4907   -2.2540 H         1 <0>        0.00000
     37 H12        -2.6333    2.9096   -3.7056 H         1 <0>        0.00000
     38 H13        -1.2773    1.8647   -3.1788 H         1 <0>        0.00000
     39 H14        -2.2466    2.7507   -1.9723 H         1 <0>        0.00000
@<TRIPOS>BOND
     1    1    2 1
     2    2    3 ar
     3    2    8 ar
     4    3    4 ar
     5    4    5 1
     6    4    6 ar
     7    6    7 ar
     8    7    8 ar
     9    8    9 1
    10    9   10 ar
    11    9   11 ar
    12   10   16 ar
    13   11   12 ar
    14   12   13 1
    15   12   14 ar
    16   14   16 ar
    17   14   15 1
    18   16   17 1
    19   17   18 2
    20   17   19 am
    21   19   20 1
    22   20   21 1
    23   21   22 1
    24   22   24 1
    25   22   23 2
    26   24   25 1
    27    3   26 1
    28    6   27 1
    29    7   28 1
    30   10   29 1
    31   11   30 1
    32   15   31 1
    33   19   32 1
    34   20   33 1
    35   20   34 1
    36   21   35 1
    37   21   36 1
    38   25   37 1
    39   25   38 1
    40   25   39 1
@<TRIPOS>SUBSTRUCTURE
     1 <0>         1 GROUP 0 A     ****
@<TRIPOS>MOLECULE
MiniDrugBank_236
   36    37     1     0     0
SMALL
NO_CHARGES

@<TRIPOS>ATOM
      1 O1          0.1304   -3.2802    4.8132 O.2       1 <0>        0.00000
      2 C1         -0.2780   -2.2133    4.3767 C.2       1 <0>        0.00000
      3 O2         -0.7760   -1.2295    5.1711 O.3       1 <0>        0.00000
      4 C2         -0.2937   -1.8059    2.9193 C.3       1 <0>        0.00000
      5 C3          0.2655   -2.8803    1.9958 C.3       1 <0>        0.00000
      6 N1          1.6312   -3.2044    2.3085 N.am      1 <0>        0.00000
      7 C4          2.7095   -2.5456    1.7303 C.2       1 <0>        0.00000
      8 O3          2.6142   -1.6371    0.9093 O.2       1 <0>        0.00000
      9 C5          4.0582   -3.0161    2.1387 C.ar      1 <0>        0.00000
     10 C6          4.4167   -2.9510    3.4851 C.ar      1 <0>        0.00000
     11 C7          4.9602   -3.5176    1.2003 C.ar      1 <0>        0.00000
     12 O4          4.5889   -3.5727   -0.1126 O.3       1 <0>        0.00000
     13 C8          6.2206   -3.9539    1.6083 C.ar      1 <0>        0.00000
     14 I1          7.6129   -4.7126    0.2445 I         1 <0>        0.00000
     15 C9          6.5792   -3.8888    2.9547 C.ar      1 <0>        0.00000
     16 C10         5.6771   -3.3873    3.8932 C.ar      1 <0>        0.00000
     17 C11         6.0484   -3.3195    5.2900 C.ar      1 <0>        0.00000
     18 C12         5.3085   -4.0136    6.2473 C.ar      1 <0>        0.00000
     19 F1          4.2474   -4.7521    5.8901 F         1 <0>        0.00000
     20 C13         7.1506   -2.5578    5.6780 C.ar      1 <0>        0.00000
     21 C14         7.5129   -2.4900    7.0233 C.ar      1 <0>        0.00000
     22 C15         6.7730   -3.1841    7.9806 C.ar      1 <0>        0.00000
     23 F2          7.1222   -3.1207    9.2721 F         1 <0>        0.00000
     24 C16         5.6708   -3.9459    7.5926 C.ar      1 <0>        0.00000
     25 H1         -1.0700   -0.4228    4.6959 H         1 <0>        0.00000
     26 H2         -1.3257   -1.5690    2.6363 H         1 <0>        0.00000
     27 H3          0.3206   -0.9037    2.8237 H         1 <0>        0.00000
     28 H4          0.2309   -2.5698    0.9468 H         1 <0>        0.00000
     29 H5         -0.3128   -3.8037    2.1001 H         1 <0>        0.00000
     30 H6          1.8155   -3.9464    2.9807 H         1 <0>        0.00000
     31 H7          3.7108   -2.5587    4.2150 H         1 <0>        0.00000
     32 H8          5.3095   -3.9401   -0.6462 H         1 <0>        0.00000
     33 H9          7.5609   -4.2264    3.2814 H         1 <0>        0.00000
     34 H10         7.7373   -2.0106    4.9437 H         1 <0>        0.00000
     35 H11         8.3698   -1.8955    7.3265 H         1 <0>        0.00000
     36 H12         5.0959   -4.4869    8.3382 H         1 <0>        0.00000
@<TRIPOS>BOND
     1    1    2 2
     2    2    4 1
     3    2    3 1
     4    4    5 1
     5    5    6 1
     6    6    7 am
     7    7    9 1
     8    7    8 2
     9    9   10 ar
    10    9   11 ar
    11   10   16 ar
    12   11   13 ar
    13   11   12 1
    14   13   15 ar
    15   13   14 1
    16   15   16 ar
    17   16   17 1
    18   17   18 ar
    19   17   20 ar
    20   18   24 ar
    21   18   19 1
    22   20   21 ar
    23   21   22 ar
    24   22   23 1
    25   22   24 ar
    26    3   25 1
    27    4   26 1
    28    4   27 1
    29    5   28 1
    30    5   29 1
    31    6   30 1
    32   10   31 1
    33   12   32 1
    34   15   33 1
    35   20   34 1
    36   21   35 1
    37   24   36 1
@<TRIPOS>SUBSTRUCTURE
     1 <0>         1 GROUP 0 A     ****
@<TRIPOS>MOLECULE
MiniDrugBank_237
   25    25     1     0     0
SMALL
NO_CHARGES

@<TRIPOS>ATOM
      1 N1          0.9013   -0.5170    1.8640 N.3       1 <0>        0.00000
      2 C1         -0.2717   -0.2549    1.0309 C.3       1 <0>        0.00000
      3 C2         -1.0265    0.9334    1.5255 C.ar      1 <0>        0.00000
      4 C3          1.3537   -1.8968    1.6904 C.3       1 <0>        0.00000
      5 C4          1.9777    0.4185    1.5398 C.3       1 <0>        0.00000
      6 C5         -2.0434    0.7717    2.4664 C.ar      1 <0>        0.00000
      7 C6         -0.7149    2.2060    1.0470 C.ar      1 <0>        0.00000
      8 C7         -2.7488    1.8826    2.9289 C.ar      1 <0>        0.00000
      9 C8         -1.4203    3.3170    1.5094 C.ar      1 <0>        0.00000
     10 C9         -2.4372    3.1553    2.4503 C.ar      1 <0>        0.00000
     11 C10         0.5260   -2.7948    2.4866 C.1       1 <0>        0.00000
     12 C11        -0.1451   -3.5500    3.1353 C.1       1 <0>        0.00000
     13 H1         -0.8791   -1.1572    1.0547 H         1 <0>        0.00000
     14 H2          0.0943   -0.1151    0.0163 H         1 <0>        0.00000
     15 H3          1.2943   -2.1407    0.6319 H         1 <0>        0.00000
     16 H4          2.3961   -1.9533    1.9976 H         1 <0>        0.00000
     17 H5          2.8326    0.2015    2.1712 H         1 <0>        0.00000
     18 H6          1.6310    1.4309    1.7188 H         1 <0>        0.00000
     19 H7          2.2468    0.2985    0.4958 H         1 <0>        0.00000
     20 H8         -2.2936   -0.2159    2.8449 H         1 <0>        0.00000
     21 H9          0.0762    2.3411    0.3142 H         1 <0>        0.00000
     22 H10        -3.5401    1.7568    3.6619 H         1 <0>        0.00000
     23 H11        -1.1778    4.3079    1.1366 H         1 <0>        0.00000
     24 H12        -2.9867    4.0202    2.8105 H         1 <0>        0.00000
     25 H13        -0.7408   -4.2196    3.7105 H         1 <0>        0.00000
@<TRIPOS>BOND
     1    1    2 1
     2    1    4 1
     3    1    5 1
     4    2    3 1
     5    3    6 ar
     6    3    7 ar
     7    4   11 1
     8    6    8 ar
     9    7    9 ar
    10    8   10 ar
    11    9   10 ar
    12   11   12 3
    13    2   13 1
    14    2   14 1
    15    4   15 1
    16    4   16 1
    17    5   17 1
    18    5   18 1
    19    5   19 1
    20    6   20 1
    21    7   21 1
    22    8   22 1
    23    9   23 1
    24   10   24 1
    25   12   25 1
@<TRIPOS>SUBSTRUCTURE
     1 <0>         1 GROUP 0 A     ****
@<TRIPOS>MOLECULE
MiniDrugBank_238
   41    43     1     0     0
SMALL
NO_CHARGES

@<TRIPOS>ATOM
      1 N1         -0.4876   -3.7352    2.7973 N.am      1 <0>        0.00000
      2 C1          0.4476   -4.2448    3.6782 C.ar      1 <0>        0.00000
      3 C2          1.5906   -3.4878    3.6197 C.ar      1 <0>        0.00000
      4 C3          1.3727   -2.4558    2.6773 C.ar      1 <0>        0.00000
      5 C4          2.1737   -1.3928    2.2101 C.ar      1 <0>        0.00000
      6 C5          1.6665   -0.5165    1.2488 C.ar      1 <0>        0.00000
      7 C6          0.3813   -0.6875    0.7507 C.ar      1 <0>        0.00000
      8 C7         -0.4315   -1.7338    1.1991 C.ar      1 <0>        0.00000
      9 C8          0.0744   -2.6160    2.1732 C.ar      1 <0>        0.00000
     10 C9         -1.7878   -4.2528    2.6105 C.2       1 <0>        0.00000
     11 C10        -2.9622   -3.4519    2.2143 C.ar      1 <0>        0.00000
     12 C11        -3.3901   -2.3963    3.0195 C.ar      1 <0>        0.00000
     13 C12        -4.4999   -1.6388    2.6449 C.ar      1 <0>        0.00000
     14 C13        -5.1817   -1.9368    1.4650 C.ar      1 <0>        0.00000
     15 C14        -4.7537   -2.9924    0.6598 C.ar      1 <0>        0.00000
     16 C15        -3.6440   -3.7499    1.0345 C.ar      1 <0>        0.00000
     17 C16         0.2124   -5.4327    4.5334 C.3       1 <0>        0.00000
     18 C17         2.8247   -3.7087    4.4034 C.3       1 <0>        0.00000
     19 C18         2.7900   -2.9601    5.7173 C.2       1 <0>        0.00000
     20 C19         3.7493    0.6273    1.3477 C.3       1 <0>        0.00000
     21 O1         -1.9574   -5.4563    2.7763 O.2       1 <0>        0.00000
     22 O2          2.4389    0.5102    0.7966 O.3       1 <0>        0.00000
     23 O3          1.8531   -2.2601    6.0804 O.2       1 <0>        0.00000
     24 O4          3.9295   -3.1094    6.4382 O.3       1 <0>        0.00000
     25 I1         -6.8343   -0.8085    0.9067 I         1 <0>        0.00000
     26 H1          3.1812   -1.2549    2.5945 H         1 <0>        0.00000
     27 H2         -0.0063   -0.0026   -0.0000 H         1 <0>        0.00000
     28 H3         -1.4286   -1.8371    0.7866 H         1 <0>        0.00000
     29 H4         -2.8662   -2.1555    3.9409 H         1 <0>        0.00000
     30 H5         -4.8166   -0.8207    3.2868 H         1 <0>        0.00000
     31 H6         -5.2706   -3.2416   -0.2635 H         1 <0>        0.00000
     32 H7         -3.3191   -4.5703    0.3997 H         1 <0>        0.00000
     33 H8          0.5190   -6.3537    4.0160 H         1 <0>        0.00000
     34 H9          0.7724   -5.3711    5.4794 H         1 <0>        0.00000
     35 H10        -0.8493   -5.5334    4.8076 H         1 <0>        0.00000
     36 H11         3.7335   -3.4227    3.8498 H         1 <0>        0.00000
     37 H12         2.9729   -4.7751    4.6406 H         1 <0>        0.00000
     38 H13         4.2575    1.4857    0.9017 H         1 <0>        0.00000
     39 H14         4.3127   -0.2876    1.1477 H         1 <0>        0.00000
     40 H15         3.6690    0.7747    2.4273 H         1 <0>        0.00000
     41 H16         4.6051   -3.6976    6.0382 H         1 <0>        0.00000
@<TRIPOS>BOND
     1    1    2 1
     2    1    9 1
     3    1   10 am
     4    2    3 2
     5    2   17 1
     6    3    4 1
     7    3   18 1
     8    4    5 ar
     9    4    9 ar
    10    5    6 ar
    11    6    7 ar
    12    6   22 1
    13    7    8 ar
    14    8    9 ar
    15   10   11 1
    16   10   21 2
    17   11   12 ar
    18   11   16 ar
    19   12   13 ar
    20   13   14 ar
    21   14   15 ar
    22   14   25 1
    23   15   16 ar
    24   18   19 1
    25   19   23 2
    26   19   24 1
    27   20   22 1
    28    5   26 1
    29    7   27 1
    30    8   28 1
    31   12   29 1
    32   13   30 1
    33   15   31 1
    34   16   32 1
    35   17   33 1
    36   17   34 1
    37   17   35 1
    38   18   36 1
    39   18   37 1
    40   20   38 1
    41   20   39 1
    42   20   40 1
    43   24   41 1
@<TRIPOS>SUBSTRUCTURE
     1 <0>         1 GROUP 0 A     ****
@<TRIPOS>MOLECULE
MiniDrugBank_239
   26    28     1     0     0
SMALL
NO_CHARGES

@<TRIPOS>ATOM
      1 C1          1.7039    1.8323    7.1187 C.ar      1 <0>        0.00000
      2 C2          1.1680    1.4390    5.8990 C.ar      1 <0>        0.00000
      3 C3         -0.2165    0.8586    5.7993 C.3       1 <0>        0.00000
      4 C4         -0.8635    1.1618    4.4439 C.3       1 <0>        0.00000
      5 C5          0.0724    0.8893    3.2882 C.ar      1 <0>        0.00000
      6 C6         -0.4463    0.5037    2.0444 C.ar      1 <0>        0.00000
      7 C7          0.4052    0.3032    0.9608 C.ar      1 <0>        0.00000
      8 C8          1.7752    0.4983    1.1092 C.ar      1 <0>        0.00000
      9 C9          2.2992    0.8969    2.3413 C.ar      1 <0>        0.00000
     10 C10         1.4609    1.1020    3.4496 C.ar      1 <0>        0.00000
     11 C11         1.9734    1.5220    4.7628 C.ar      1 <0>        0.00000
     12 N1          3.2404    1.9926    4.8292 N.ar      1 <0>        0.00000
     13 N2          3.7587    2.3926    6.0260 N.ar      1 <0>        0.00000
     14 C12         2.9984    2.3069    7.1347 C.ar      1 <0>        0.00000
     15 N3          3.5395    2.7137    8.3763 N.pl3     1 <0>        0.00000
     16 H1          1.1172    1.7631    8.0296 H         1 <0>        0.00000
     17 H2         -0.1405   -0.2273    5.9408 H         1 <0>        0.00000
     18 H3         -0.8591    1.2516    6.5959 H         1 <0>        0.00000
     19 H4         -1.7779    0.5644    4.3477 H         1 <0>        0.00000
     20 H5         -1.1543    2.2194    4.3989 H         1 <0>        0.00000
     21 H6         -1.5159    0.3611    1.9136 H         1 <0>        0.00000
     22 H7          0.0001   -0.0005    0.0001 H         1 <0>        0.00000
     23 H8          2.4396    0.3436    0.2637 H         1 <0>        0.00000
     24 H9          3.3746    1.0395    2.4200 H         1 <0>        0.00000
     25 H10         2.9593    2.6906    9.1881 H         1 <0>        0.00000
     26 H11         4.4580    3.1038    8.3993 H         1 <0>        0.00000
@<TRIPOS>BOND
     1    1    2 ar
     2    1   14 ar
     3    2    3 1
     4    2   11 ar
     5    3    4 1
     6    4    5 1
     7    5    6 ar
     8    5   10 ar
     9    6    7 ar
    10    7    8 ar
    11    8    9 ar
    12    9   10 ar
    13   10   11 1
    14   11   12 ar
    15   12   13 ar
    16   13   14 ar
    17   14   15 1
    18    1   16 1
    19    3   17 1
    20    3   18 1
    21    4   19 1
    22    4   20 1
    23    6   21 1
    24    7   22 1
    25    8   23 1
    26    9   24 1
    27   15   25 1
    28   15   26 1
@<TRIPOS>SUBSTRUCTURE
     1 <0>         1 GROUP 0 A     ****
@<TRIPOS>MOLECULE
MiniDrugBank_240
   46    48     1     0     0
SMALL
NO_CHARGES

@<TRIPOS>ATOM
      1 C1         -0.6529    4.1474   -0.2141 C.ar      1 <0>        0.00000
      2 C2         -0.4530    6.3895   -0.9213 C.ar      1 <0>        0.00000
      3 C3         -0.9533    1.9133    0.9018 C.2       1 <0>        0.00000
      4 C4         -3.5031   -2.2527    0.3555 C.ar      1 <0>        0.00000
      5 C5         -3.5783   -3.6429    0.4399 C.ar      1 <0>        0.00000
      6 C6         -2.4222   -4.4130    0.3130 C.ar      1 <0>        0.00000
      7 C7         -1.1908   -3.7927    0.1016 C.ar      1 <0>        0.00000
      8 C8         -1.1156   -2.4024    0.0172 C.ar      1 <0>        0.00000
      9 C9         -3.5608    1.0703   -1.6499 C.2       1 <0>        0.00000
     10 C10        -4.6206    2.1031   -3.5032 C.3       1 <0>        0.00000
     11 C11        -3.6014    6.2655   -3.2989 C.ar      1 <0>        0.00000
     12 C12        -4.2432    5.6513   -2.2236 C.ar      1 <0>        0.00000
     13 C13        -4.5747    4.2980   -2.2898 C.ar      1 <0>        0.00000
     14 C14        -3.2912    5.5265   -4.4406 C.ar      1 <0>        0.00000
     15 S1         -0.2809    4.8811   -1.7192 S.3       1 <0>        0.00000
     16 N1         -0.8774    4.9913    0.7705 N.ar      1 <0>        0.00000
     17 N2         -0.7611    6.3064    0.3554 N.ar      1 <0>        0.00000
     18 N3         -0.6802    2.7335   -0.1854 N.am      1 <0>        0.00000
     19 S2         -0.2402    7.9249   -1.7231 S.3       1 <0>        0.00000
     20 O1         -1.2244    2.2540    2.0499 O.2       1 <0>        0.00000
     21 C15        -0.8459    0.4387    0.5434 C.3       1 <0>        0.00000
     22 C16        -2.1894   -0.1220    0.0526 C.3       1 <0>        0.00000
     23 C17        -2.2717   -1.6324    0.1441 C.ar      1 <0>        0.00000
     24 O2         -3.5298    1.3293   -2.9913 O.3       1 <0>        0.00000
     25 O3         -4.4425    1.4519   -0.8873 O.2       1 <0>        0.00000
     26 N4         -2.4583    0.3225   -1.2975 N.am      1 <0>        0.00000
     27 C18        -4.2645    3.5590   -3.4314 C.ar      1 <0>        0.00000
     28 C19        -3.6226    4.1732   -4.5068 C.ar      1 <0>        0.00000
     29 H1         -2.9916    0.3171    0.6593 H         1 <0>        0.00000
     30 H2         -4.4088   -1.6605    0.4560 H         1 <0>        0.00000
     31 H3         -4.5371   -4.1258    0.6047 H         1 <0>        0.00000
     32 H4         -2.4807   -5.4952    0.3802 H         1 <0>        0.00000
     33 H5         -0.2903   -4.3919    0.0036 H         1 <0>        0.00000
     34 H6         -0.1517   -1.9280   -0.1480 H         1 <0>        0.00000
     35 H7         -5.5180    1.8897   -2.9126 H         1 <0>        0.00000
     36 H8         -4.8195    1.8032   -4.5378 H         1 <0>        0.00000
     37 H9         -3.3446    7.3196   -3.2477 H         1 <0>        0.00000
     38 H10        -4.4859    6.2268   -1.3350 H         1 <0>        0.00000
     39 H11        -5.0746    3.8277   -1.4470 H         1 <0>        0.00000
     40 H12        -2.7924    6.0047   -5.2784 H         1 <0>        0.00000
     41 H13        -0.4759    2.2622   -1.0636 H         1 <0>        0.00000
     42 H14         0.0510    7.4755   -2.9589 H         1 <0>        0.00000
     43 H15        -0.0907    0.3546   -0.2492 H         1 <0>        0.00000
     44 H16        -0.4531   -0.1337    1.3928 H         1 <0>        0.00000
     45 H17        -1.7986    0.0695   -2.0254 H         1 <0>        0.00000
     46 H18        -3.3769    3.6053   -5.4002 H         1 <0>        0.00000
@<TRIPOS>BOND
     1    1   15 1
     2    1   16 2
     3    1   18 1
     4    2   15 1
     5    2   17 2
     6    2   19 1
     7    3   18 am
     8    3   20 2
     9    3   21 1
    10    4    5 ar
    11    4   23 ar
    12    5    6 ar
    13    6    7 ar
    14    7    8 ar
    15    8   23 ar
    16    9   24 1
    17    9   25 2
    18    9   26 am
    19   10   24 1
    20   10   27 1
    21   11   12 ar
    22   11   14 ar
    23   12   13 ar
    24   13   27 ar
    25   14   28 ar
    26   16   17 1
    27   21   22 1
    28   22   23 1
    29   22   26 1
    30   22   29 1
    31   27   28 ar
    32    4   30 1
    33    5   31 1
    34    6   32 1
    35    7   33 1
    36    8   34 1
    37   10   35 1
    38   10   36 1
    39   11   37 1
    40   12   38 1
    41   13   39 1
    42   14   40 1
    43   18   41 1
    44   19   42 1
    45   21   43 1
    46   21   44 1
    47   26   45 1
    48   28   46 1
@<TRIPOS>SUBSTRUCTURE
     1 <0>         1 GROUP 0 A     ****
@<TRIPOS>MOLECULE
MiniDrugBank_241
   37    38     1     0     0
SMALL
NO_CHARGES

@<TRIPOS>ATOM
      1 C1          7.2796    3.2007    1.7537 C.ar      1 <0>        0.00000
      2 C2          9.5930    2.9660    2.1540 C.ar      1 <0>        0.00000
      3 C3          4.8321    3.0958    1.1378 C.2       1 <0>        0.00000
      4 C4          1.2731    4.1525    1.6828 C.3       1 <0>        0.00000
      5 C5          1.7127    3.7051    4.1191 C.ar      1 <0>        0.00000
      6 C6          1.0209    3.3776    2.9530 C.ar      1 <0>        0.00000
      7 C7          0.0950    2.3344    2.9612 C.ar      1 <0>        0.00000
      8 C8         -0.1390    1.6186    4.1353 C.ar      1 <0>        0.00000
      9 C9          0.5530    1.9460    5.3013 C.ar      1 <0>        0.00000
     10 C10         1.4789    2.9893    5.2932 C.ar      1 <0>        0.00000
     11 C11         1.4042    3.3858   -2.8334 C.3       1 <0>        0.00000
     12 S1          8.4428    4.1732    2.5555 S.3       1 <0>        0.00000
     13 N1          7.7517    2.0828    1.2446 N.ar      1 <0>        0.00000
     14 N2          9.1084    1.9446    1.4803 N.ar      1 <0>        0.00000
     15 N3          5.9534    3.6914    1.7222 N.am      1 <0>        0.00000
     16 S2         11.2782    3.0664    2.5958 S.3       1 <0>        0.00000
     17 O1          4.8007    2.0235    0.5389 O.2       1 <0>        0.00000
     18 N4          3.7032    3.9001    1.3249 N.am      1 <0>        0.00000
     19 C12         2.3956    3.5471    0.8321 C.3       1 <0>        0.00000
     20 C13         2.3031    4.0498   -0.6042 C.2       1 <0>        0.00000
     21 O2          2.8364    5.0898   -0.9848 O.2       1 <0>        0.00000
     22 N5          1.5976    3.1733   -1.4170 N.am      1 <0>        0.00000
     23 F1         -0.5741    2.0121    1.8456 F         1 <0>        0.00000
     24 F2         -1.0275    0.6164    4.1435 F         1 <0>        0.00000
     25 F3          0.3286    1.2583    6.4285 F         1 <0>        0.00000
     26 F4          2.1430    3.3034    6.4129 F         1 <0>        0.00000
     27 F5          2.6047    4.7055    4.1214 F         1 <0>        0.00000
     28 H1          2.3469    2.4519    0.8280 H         1 <0>        0.00000
     29 H2          0.3452    4.2163    1.0985 H         1 <0>        0.00000
     30 H3          1.5140    5.1888    1.9544 H         1 <0>        0.00000
     31 H4          2.2197    2.9255   -3.3972 H         1 <0>        0.00000
     32 H5          1.3830    4.4562   -3.0556 H         1 <0>        0.00000
     33 H6          0.4586    2.9421   -3.1565 H         1 <0>        0.00000
     34 H7          5.8025    4.5857    2.1821 H         1 <0>        0.00000
     35 H8         11.2539    4.2482    3.2413 H         1 <0>        0.00000
     36 H9          3.8099    4.7734    1.8314 H         1 <0>        0.00000
     37 H10         1.1911    2.3363   -1.0096 H         1 <0>        0.00000
@<TRIPOS>BOND
     1    1   12 1
     2    1   13 2
     3    1   15 1
     4    2   12 1
     5    2   14 2
     6    2   16 1
     7    3   15 am
     8    3   17 2
     9    3   18 am
    10    4    6 1
    11    4   19 1
    12    5    6 ar
    13    5   10 ar
    14    5   27 1
    15    6    7 ar
    16    7    8 ar
    17    7   23 1
    18    8    9 ar
    19    8   24 1
    20    9   10 ar
    21    9   25 1
    22   10   26 1
    23   11   22 1
    24   13   14 1
    25   18   19 1
    26   19   20 1
    27   19   28 1
    28   20   21 2
    29   20   22 am
    30    4   29 1
    31    4   30 1
    32   11   31 1
    33   11   32 1
    34   11   33 1
    35   15   34 1
    36   16   35 1
    37   18   36 1
    38   22   37 1
@<TRIPOS>SUBSTRUCTURE
     1 <0>         1 GROUP 0 A     ****
@<TRIPOS>MOLECULE
MiniDrugBank_242
   54    57     1     0     0
SMALL
NO_CHARGES

@<TRIPOS>ATOM
      1 C1          2.1998   -2.5713   -8.0793 C.3       1 <0>        0.00000
      2 C2          2.2369   -1.1208   -7.5939 C.3       1 <0>        0.00000
      3 C3          2.8164   -0.1910   -8.6482 C.3       1 <0>        0.00000
      4 C4          1.8443    0.0196   -9.7762 C.2       1 <0>        0.00000
      5 O1          2.2297    0.2133  -10.9286 O.2       1 <0>        0.00000
      6 N1          0.5191    0.0497   -9.4108 N.am      1 <0>        0.00000
      7 N2          0.0470   -0.1320   -8.1562 N.2       1 <0>        0.00000
      8 C5          0.8312   -0.6439   -7.2555 C.2       1 <0>        0.00000
      9 C6          0.3136   -0.7957   -5.8560 C.ar      1 <0>        0.00000
     10 C7          1.1978   -0.7580   -4.7779 C.ar      1 <0>        0.00000
     11 C8          0.7168   -0.8995   -3.4762 C.ar      1 <0>        0.00000
     12 C9         -0.6483   -1.0788   -3.2527 C.ar      1 <0>        0.00000
     13 N3         -1.1343   -1.2194   -1.9397 N.pl3     1 <0>        0.00000
     14 C10        -0.6327   -0.6914   -0.7779 C.2       1 <0>        0.00000
     15 C11        -0.2128   -1.4219    0.2793 C.2       1 <0>        0.00000
     16 C12        -0.2446   -2.9225    0.3706 C.3       1 <0>        0.00000
     17 C13         1.0186   -3.5509   -0.1429 C.ar      1 <0>        0.00000
     18 C14         2.0831   -3.7865    0.7270 C.ar      1 <0>        0.00000
     19 C15         3.2565   -4.3715    0.2510 C.ar      1 <0>        0.00000
     20 C16         3.3653   -4.7209   -1.0951 C.ar      1 <0>        0.00000
     21 C17         2.3007   -4.4853   -1.9650 C.ar      1 <0>        0.00000
     22 I1          2.4633   -5.0062   -3.9699 I         1 <0>        0.00000
     23 C18         1.1274   -3.9003   -1.4890 C.ar      1 <0>        0.00000
     24 C19         0.3676   -0.7297    1.4811 C.2       1 <0>        0.00000
     25 O2          0.7630   -1.3812    2.4483 O.2       1 <0>        0.00000
     26 C20         0.5249    0.7717    1.4567 C.3       1 <0>        0.00000
     27 C21        -0.5734    1.4127    0.6353 C.3       1 <0>        0.00000
     28 C22        -0.5978    0.8239   -0.7675 C.3       1 <0>        0.00000
     29 C23        -1.5325   -1.1164   -4.3309 C.ar      1 <0>        0.00000
     30 C24        -1.0516   -0.9749   -5.6325 C.ar      1 <0>        0.00000
     31 H1          1.7803   -3.2241   -7.3080 H         1 <0>        0.00000
     32 H2          1.5830   -2.6601   -8.9787 H         1 <0>        0.00000
     33 H3          3.2082   -2.9229   -8.3170 H         1 <0>        0.00000
     34 H4          2.8603   -1.0719   -6.6979 H         1 <0>        0.00000
     35 H5          3.0248    0.7935   -8.2121 H         1 <0>        0.00000
     36 H6          3.7542   -0.5908   -9.0483 H         1 <0>        0.00000
     37 H7         -0.1936    0.2700  -10.0991 H         1 <0>        0.00000
     38 H8          2.2634   -0.6182   -4.9404 H         1 <0>        0.00000
     39 H9          1.4140   -0.8688   -2.6429 H         1 <0>        0.00000
     40 H10        -1.9679   -1.7880   -1.8339 H         1 <0>        0.00000
     41 H11        -1.1027   -3.2914   -0.1966 H         1 <0>        0.00000
     42 H12        -0.4186   -3.2048    1.4114 H         1 <0>        0.00000
     43 H13         2.0072   -3.5183    1.7773 H         1 <0>        0.00000
     44 H14         4.0853   -4.5551    0.9286 H         1 <0>        0.00000
     45 H15         4.2887   -5.1757   -1.4447 H         1 <0>        0.00000
     46 H16         0.2905   -3.7124   -2.1584 H         1 <0>        0.00000
     47 H17         0.4734    1.1460    2.4849 H         1 <0>        0.00000
     48 H18         1.5145    1.0085    1.0511 H         1 <0>        0.00000
     49 H19        -1.5443    1.2456    1.1196 H         1 <0>        0.00000
     50 H20        -0.4223    2.4967    0.5837 H         1 <0>        0.00000
     51 H21        -1.4791    1.2248   -1.2846 H         1 <0>        0.00000
     52 H22         0.2826    1.1593   -1.3303 H         1 <0>        0.00000
     53 H23        -2.5981   -1.2558   -4.1675 H         1 <0>        0.00000
     54 H24        -1.7496   -1.0051   -6.4653 H         1 <0>        0.00000
@<TRIPOS>BOND
     1    1    2 1
     2    2    3 1
     3    3    4 1
     4    4    5 2
     5    4    6 am
     6    6    7 1
     7    7    8 2
     8    2    8 1
     9    8    9 1
    10    9   10 ar
    11   10   11 ar
    12   11   12 ar
    13   12   13 1
    14   13   14 1
    15   14   15 2
    16   15   16 1
    17   16   17 1
    18   17   18 ar
    19   18   19 ar
    20   19   20 ar
    21   20   21 ar
    22   21   22 1
    23   21   23 ar
    24   17   23 ar
    25   15   24 1
    26   24   25 2
    27   24   26 1
    28   26   27 1
    29   27   28 1
    30   14   28 1
    31   12   29 ar
    32   29   30 ar
    33    9   30 ar
    34    1   31 1
    35    1   32 1
    36    1   33 1
    37    2   34 1
    38    3   35 1
    39    3   36 1
    40    6   37 1
    41   10   38 1
    42   11   39 1
    43   13   40 1
    44   16   41 1
    45   16   42 1
    46   18   43 1
    47   19   44 1
    48   20   45 1
    49   23   46 1
    50   26   47 1
    51   26   48 1
    52   27   49 1
    53   27   50 1
    54   28   51 1
    55   28   52 1
    56   29   53 1
    57   30   54 1
@<TRIPOS>SUBSTRUCTURE
     1 <0>         1 GROUP 0 A     ****
@<TRIPOS>MOLECULE
MiniDrugBank_243
   34    36     1     0     0
SMALL
NO_CHARGES

@<TRIPOS>ATOM
      1 C1         -1.3985    2.3333    1.6249 C.ar      1 <0>        0.00000
      2 O1          2.5640    0.6838    0.4661 O.3       1 <0>        0.00000
      3 C2          1.3942   -0.1066   -1.4815 C.3       1 <0>        0.00000
      4 C3          1.4959    1.0166   -0.4239 C.3       1 <0>        0.00000
      5 C4          1.2174   -2.5852   -1.6603 C.3       1 <0>        0.00000
      6 C5          2.3352   -3.3732   -1.0409 C.ar      1 <0>        0.00000
      7 C6          3.6909   -3.2481   -1.2506 C.ar      1 <0>        0.00000
      8 C7          4.4405   -4.1793   -0.4753 C.ar      1 <0>        0.00000
      9 C8          3.6291   -4.9805    0.2978 C.ar      1 <0>        0.00000
     10 O2         -3.5721    3.7489    1.8372 O.2       1 <0>        0.00000
     11 O3         -2.4775    2.8774    3.9324 O.2       1 <0>        0.00000
     12 N1         -1.3572    4.8000    2.6341 N.pl3     1 <0>        0.00000
     13 S1         -2.3733    3.4296    2.5928 S.o2      1 <0>        0.00000
     14 C9         -0.1602    2.4484    1.0255 C.ar      1 <0>        0.00000
     15 C10         0.2176    1.2581    0.3323 C.ar      1 <0>        0.00000
     16 C11        -0.7649    0.3010    0.4519 C.ar      1 <0>        0.00000
     17 S2         -2.1070    0.7947    1.3514 S.3       1 <0>        0.00000
     18 S3         -0.7451   -1.3020   -0.2678 S.o2      1 <0>        0.00000
     19 O4         -1.6752   -1.2188   -1.3756 O.2       1 <0>        0.00000
     20 O5         -0.9171   -2.2414    0.8205 O.2       1 <0>        0.00000
     21 N2          0.8790   -1.3820   -0.8636 N.pl3     1 <0>        0.00000
     22 S4          1.9708   -4.6091    0.0870 S.3       1 <0>        0.00000
     23 H1          1.7865    1.9392   -0.9407 H         1 <0>        0.00000
     24 H2          2.3397   -0.1697    0.8748 H         1 <0>        0.00000
     25 H3          0.7283    0.1835   -2.3034 H         1 <0>        0.00000
     26 H4          2.3896   -0.2964   -1.9001 H         1 <0>        0.00000
     27 H5          1.4898   -2.2560   -2.6690 H         1 <0>        0.00000
     28 H6          0.3109   -3.1930   -1.7503 H         1 <0>        0.00000
     29 H7          4.1290   -2.5242   -1.9260 H         1 <0>        0.00000
     30 H8          5.5198   -4.2573   -0.4829 H         1 <0>        0.00000
     31 H9          3.9309   -5.7659    0.9762 H         1 <0>        0.00000
     32 H10        -0.5015    4.7462    3.2001 H         1 <0>        0.00000
     33 H11        -1.2496    5.3441    1.7695 H         1 <0>        0.00000
     34 H12         0.4465    3.3434    1.0838 H         1 <0>        0.00000
@<TRIPOS>BOND
     1    1   13 1
     2    1   14 2
     3    1   17 1
     4    2    4 1
     5    3    4 1
     6    3   21 1
     7    4   15 1
     8    4   23 1
     9    5    6 1
    10    5   21 1
    11    6    7 2
    12    6   22 1
    13    7    8 1
    14    8    9 2
    15    9   22 1
    16   10   13 2
    17   11   13 2
    18   12   13 1
    19   14   15 1
    20   15   16 2
    21   16   17 1
    22   16   18 1
    23   18   19 2
    24   18   20 2
    25   18   21 1
    26    2   24 1
    27    3   25 1
    28    3   26 1
    29    5   27 1
    30    5   28 1
    31    7   29 1
    32    8   30 1
    33    9   31 1
    34   12   32 1
    35   12   33 1
    36   14   34 1
@<TRIPOS>SUBSTRUCTURE
     1 <0>         1 GROUP 0 A     ****
@<TRIPOS>MOLECULE
MiniDrugBank_244
   54    56     1     0     0
SMALL
NO_CHARGES

@<TRIPOS>ATOM
      1 C1          6.0088    3.3798    3.7668 C.3       1 <0>        0.00000
      2 C2          5.0318    2.4772    3.0949 C.ar      1 <0>        0.00000
      3 C3          3.8920    3.0001    2.5178 C.ar      1 <0>        0.00000
      4 C4          3.0147    2.1223    1.9058 C.ar      1 <0>        0.00000
      5 C5          3.3354    0.7797    1.9112 C.ar      1 <0>        0.00000
      6 N1          4.4581    0.2958    2.4836 N.ar      1 <0>        0.00000
      7 N2          5.3201    1.1586    3.0854 N.ar      1 <0>        0.00000
      8 N3          2.4477   -0.1081    1.2917 N.pl3     1 <0>        0.00000
      9 C6          2.1496    0.0481   -0.1357 C.3       1 <0>        0.00000
     10 C7          0.7997   -0.5839   -0.4748 C.3       1 <0>        0.00000
     11 C8          0.7229   -2.0394   -0.0036 C.3       1 <0>        0.00000
     12 C9          1.0217   -2.1064    1.4977 C.3       1 <0>        0.00000
     13 C10         2.3728   -1.4741    1.8274 C.3       1 <0>        0.00000
     14 C11        -0.6461   -2.6402   -0.3129 C.3       1 <0>        0.00000
     15 C12        -0.6009   -4.1573   -0.3166 C.3       1 <0>        0.00000
     16 O1         -1.9018   -4.6477   -0.6098 O.3       1 <0>        0.00000
     17 C13        -2.2419   -5.8609   -0.0697 C.ar      1 <0>        0.00000
     18 C14        -1.2573   -6.8205    0.1652 C.ar      1 <0>        0.00000
     19 C15        -1.6035   -8.0549    0.7148 C.ar      1 <0>        0.00000
     20 C16        -2.9344   -8.3295    1.0298 C.ar      1 <0>        0.00000
     21 C17        -3.9190   -7.3698    0.7950 C.ar      1 <0>        0.00000
     22 C18        -3.5727   -6.1355    0.2453 C.ar      1 <0>        0.00000
     23 C19        -3.2962   -9.6171    1.6007 C.2       1 <0>        0.00000
     24 O2         -4.4489   -9.9469    1.9103 O.2       1 <0>        0.00000
     25 O3         -2.2026  -10.4249    1.7541 O.3       1 <0>        0.00000
     26 C20        -2.4310  -11.7251    2.3080 C.3       1 <0>        0.00000
     27 C21        -1.1095  -12.4507    2.3934 C.3       1 <0>        0.00000
     28 H1          5.7508    3.4900    4.8245 H         1 <0>        0.00000
     29 H2          7.0259    2.9814    3.6902 H         1 <0>        0.00000
     30 H3          6.0128    4.3697    3.2983 H         1 <0>        0.00000
     31 H4          3.6816    4.0640    2.5382 H         1 <0>        0.00000
     32 H5          2.1069    2.4919    1.4402 H         1 <0>        0.00000
     33 H6          2.1164    1.1117   -0.4035 H         1 <0>        0.00000
     34 H7          2.9407   -0.4202   -0.7355 H         1 <0>        0.00000
     35 H8          0.0002    0.0003   -0.0002 H         1 <0>        0.00000
     36 H9          0.6353   -0.5279   -1.5574 H         1 <0>        0.00000
     37 H10         1.4811   -2.6244   -0.5406 H         1 <0>        0.00000
     38 H11         0.2334   -1.5837    2.0554 H         1 <0>        0.00000
     39 H12         1.0162   -3.1486    1.8382 H         1 <0>        0.00000
     40 H13         3.1830   -2.0840    1.4071 H         1 <0>        0.00000
     41 H14         2.4982   -1.4617    2.9174 H         1 <0>        0.00000
     42 H15        -0.9929   -2.2740   -1.2834 H         1 <0>        0.00000
     43 H16        -1.3726   -2.2894    0.4255 H         1 <0>        0.00000
     44 H17         0.0914   -4.5286   -1.0789 H         1 <0>        0.00000
     45 H18        -0.2950   -4.5440    0.6608 H         1 <0>        0.00000
     46 H19        -0.2188   -6.6128   -0.0783 H         1 <0>        0.00000
     47 H20        -0.8284   -8.7956    0.8925 H         1 <0>        0.00000
     48 H21        -4.9594   -7.5731    1.0358 H         1 <0>        0.00000
     49 H22        -4.3447   -5.3924    0.0642 H         1 <0>        0.00000
     50 H23        -2.8739  -11.6010    3.2966 H         1 <0>        0.00000
     51 H24        -3.1273  -12.2549    1.6575 H         1 <0>        0.00000
     52 H25        -1.2486  -13.4506    2.8138 H         1 <0>        0.00000
     53 H26        -0.6512  -12.5439    1.4034 H         1 <0>        0.00000
     54 H27        -0.4018  -11.8989    3.0211 H         1 <0>        0.00000
@<TRIPOS>BOND
     1    1    2 1
     2    2    3 ar
     3    2    7 ar
     4    3    4 ar
     5    4    5 ar
     6    5    6 ar
     7    5    8 1
     8    6    7 ar
     9    8    9 1
    10    8   13 1
    11    9   10 1
    12   10   11 1
    13   11   12 1
    14   11   14 1
    15   12   13 1
    16   14   15 1
    17   15   16 1
    18   16   17 1
    19   17   18 ar
    20   17   22 ar
    21   18   19 ar
    22   19   20 ar
    23   20   21 ar
    24   20   23 1
    25   21   22 ar
    26   23   24 2
    27   23   25 1
    28   25   26 1
    29   26   27 1
    30    1   28 1
    31    1   29 1
    32    1   30 1
    33    3   31 1
    34    4   32 1
    35    9   33 1
    36    9   34 1
    37   10   35 1
    38   10   36 1
    39   11   37 1
    40   12   38 1
    41   12   39 1
    42   13   40 1
    43   13   41 1
    44   14   42 1
    45   14   43 1
    46   15   44 1
    47   15   45 1
    48   18   46 1
    49   19   47 1
    50   21   48 1
    51   22   49 1
    52   26   50 1
    53   26   51 1
    54   27   52 1
    55   27   53 1
    56   27   54 1
@<TRIPOS>SUBSTRUCTURE
     1 <0>         1 GROUP 0 A     ****
@<TRIPOS>MOLECULE
MiniDrugBank_245
   57    59     1     0     0
SMALL
NO_CHARGES

@<TRIPOS>ATOM
      1 C1          8.9696   -2.3754    1.8413 C.3       1 <0>        0.00000
      2 C2          7.5065   -2.3708    1.5587 C.ar      1 <0>        0.00000
      3 C3          6.6605   -3.1872    2.2821 C.ar      1 <0>        0.00000
      4 C4          5.3100   -3.1480    1.9831 C.ar      1 <0>        0.00000
      5 C5          4.8947   -2.2946    0.9808 C.ar      1 <0>        0.00000
      6 N1          5.7449   -1.5066    0.2891 N.ar      1 <0>        0.00000
      7 N2          7.0723   -1.5455    0.5827 N.ar      1 <0>        0.00000
      8 N3          3.5283   -2.2549    0.6788 N.pl3     1 <0>        0.00000
      9 C6          2.5704   -1.8660    1.7190 C.3       1 <0>        0.00000
     10 C7          1.1820   -2.4239    1.4063 C.3       1 <0>        0.00000
     11 C8          0.7229   -2.0394   -0.0036 C.3       1 <0>        0.00000
     12 C9          1.7663   -2.5041   -1.0248 C.3       1 <0>        0.00000
     13 C10         3.1501   -1.9409   -0.7057 C.3       1 <0>        0.00000
     14 C11        -0.6461   -2.6402   -0.3129 C.3       1 <0>        0.00000
     15 C12        -1.3280   -1.9015   -1.4579 C.3       1 <0>        0.00000
     16 C13        -2.6935   -2.4973   -1.7697 C.3       1 <0>        0.00000
     17 O1         -3.2780   -1.7698   -2.8412 O.3       1 <0>        0.00000
     18 C14        -4.1294   -2.4593   -3.6651 C.ar      1 <0>        0.00000
     19 C15        -4.8738   -3.5267   -3.1632 C.ar      1 <0>        0.00000
     20 C16        -5.7401   -4.2281   -4.0018 C.ar      1 <0>        0.00000
     21 C17        -5.8620   -3.8621   -5.3423 C.ar      1 <0>        0.00000
     22 C18        -5.1175   -2.7946   -5.8441 C.ar      1 <0>        0.00000
     23 C19        -4.2512   -2.0932   -5.0055 C.ar      1 <0>        0.00000
     24 C20        -6.7633   -4.5944   -6.2175 C.2       1 <0>        0.00000
     25 O2         -6.9347   -4.3404   -7.4172 O.2       1 <0>        0.00000
     26 O3         -7.4016   -5.6047   -5.5511 O.3       1 <0>        0.00000
     27 C21        -8.3180   -6.4019   -6.3089 C.3       1 <0>        0.00000
     28 C22        -8.9103   -7.4506   -5.3982 C.3       1 <0>        0.00000
     29 H1          9.4685   -3.1257    1.2204 H         1 <0>        0.00000
     30 H2          9.4108   -1.3947    1.6348 H         1 <0>        0.00000
     31 H3          9.1634   -2.6021    2.8951 H         1 <0>        0.00000
     32 H4          7.0329   -3.8426    3.0622 H         1 <0>        0.00000
     33 H5          4.6108   -3.7739    2.5280 H         1 <0>        0.00000
     34 H6          2.8916   -2.2505    2.6952 H         1 <0>        0.00000
     35 H7          2.5236   -0.7717    1.7927 H         1 <0>        0.00000
     36 H8          1.2046   -3.5175    1.5017 H         1 <0>        0.00000
     37 H9          0.4670   -2.0540    2.1508 H         1 <0>        0.00000
     38 H10         0.6361   -0.9463   -0.0604 H         1 <0>        0.00000
     39 H11         1.8159   -3.6009   -1.0299 H         1 <0>        0.00000
     40 H12         1.4721   -2.1932   -2.0342 H         1 <0>        0.00000
     41 H13         3.1543   -0.8535   -0.8556 H         1 <0>        0.00000
     42 H14         3.8758   -2.3748   -1.4050 H         1 <0>        0.00000
     43 H15        -0.5186   -3.6962   -0.5689 H         1 <0>        0.00000
     44 H16        -1.2645   -2.5921    0.5883 H         1 <0>        0.00000
     45 H17        -1.4432   -0.8385   -1.2120 H         1 <0>        0.00000
     46 H18        -0.7032   -1.9341   -2.3593 H         1 <0>        0.00000
     47 H19        -2.6028   -3.5461   -2.0696 H         1 <0>        0.00000
     48 H20        -3.3565   -2.4308   -0.9012 H         1 <0>        0.00000
     49 H21        -4.7831   -3.8171   -2.1199 H         1 <0>        0.00000
     50 H22        -6.3145   -5.0589   -3.6004 H         1 <0>        0.00000
     51 H23        -5.2039   -2.5008   -6.8873 H         1 <0>        0.00000
     52 H24        -3.6736   -1.2629   -5.4030 H         1 <0>        0.00000
     53 H25        -9.0929   -5.7455   -6.7057 H         1 <0>        0.00000
     54 H26        -7.7698   -6.8619   -7.1313 H         1 <0>        0.00000
     55 H27        -9.6171   -8.0790   -5.9472 H         1 <0>        0.00000
     56 H28        -8.1264   -8.0871   -4.9747 H         1 <0>        0.00000
     57 H29        -9.4322   -6.9853   -4.5554 H         1 <0>        0.00000
@<TRIPOS>BOND
     1    1    2 1
     2    2    3 ar
     3    2    7 ar
     4    3    4 ar
     5    4    5 ar
     6    5    6 ar
     7    5    8 1
     8    6    7 ar
     9    8    9 1
    10    8   13 1
    11    9   10 1
    12   10   11 1
    13   11   12 1
    14   11   14 1
    15   12   13 1
    16   14   15 1
    17   15   16 1
    18   16   17 1
    19   17   18 1
    20   18   19 ar
    21   18   23 ar
    22   19   20 ar
    23   20   21 ar
    24   21   22 ar
    25   21   24 1
    26   22   23 ar
    27   24   25 2
    28   24   26 1
    29   26   27 1
    30   27   28 1
    31    1   29 1
    32    1   30 1
    33    1   31 1
    34    3   32 1
    35    4   33 1
    36    9   34 1
    37    9   35 1
    38   10   36 1
    39   10   37 1
    40   11   38 1
    41   12   39 1
    42   12   40 1
    43   13   41 1
    44   13   42 1
    45   14   43 1
    46   14   44 1
    47   15   45 1
    48   15   46 1
    49   16   47 1
    50   16   48 1
    51   19   49 1
    52   20   50 1
    53   22   51 1
    54   23   52 1
    55   27   53 1
    56   27   54 1
    57   28   55 1
    58   28   56 1
    59   28   57 1
@<TRIPOS>SUBSTRUCTURE
     1 <0>         1 GROUP 0 A     ****
@<TRIPOS>MOLECULE
MiniDrugBank_246
   60    62     1     0     0
SMALL
NO_CHARGES

@<TRIPOS>ATOM
      1 C1          8.3241   -1.8616    3.6997 C.3       1 <0>        0.00000
      2 C2          6.9583   -1.9188    3.1064 C.ar      1 <0>        0.00000
      3 C3          5.8720   -2.2244    3.9015 C.ar      1 <0>        0.00000
      4 C4          4.6240   -2.2656    3.3051 C.ar      1 <0>        0.00000
      5 C5          4.5449   -1.9981    1.9532 C.ar      1 <0>        0.00000
      6 N1          5.6248   -1.7017    1.1995 N.ar      1 <0>        0.00000
      7 N2          6.8514   -1.6616    1.7856 N.ar      1 <0>        0.00000
      8 N3          3.2821   -2.0397    1.3502 N.pl3     1 <0>        0.00000
      9 C6          2.2271   -1.1368    1.8222 C.3       1 <0>        0.00000
     10 C7          0.8469   -1.7010    1.4852 C.3       1 <0>        0.00000
     11 C8          0.7229   -2.0394   -0.0036 C.3       1 <0>        0.00000
     12 C9          1.8449   -3.0032   -0.4033 C.3       1 <0>        0.00000
     13 C10         3.2203   -2.4310   -0.0645 C.3       1 <0>        0.00000
     14 C11        -0.6461   -2.6402   -0.3129 C.3       1 <0>        0.00000
     15 C12        -0.9770   -2.5282   -1.7985 C.3       1 <0>        0.00000
     16 C13        -2.3469   -3.1301   -2.1039 C.3       1 <0>        0.00000
     17 C14        -2.6899   -3.0251   -3.5831 C.3       1 <0>        0.00000
     18 O1         -3.9708   -3.6006   -3.7995 O.3       1 <0>        0.00000
     19 C15        -4.1934   -4.1714   -5.0257 C.ar      1 <0>        0.00000
     20 C16        -3.5381   -3.6784   -6.1540 C.ar      1 <0>        0.00000
     21 C17        -3.7646   -4.2595   -7.4017 C.ar      1 <0>        0.00000
     22 C18        -4.6465   -5.3336   -7.5210 C.ar      1 <0>        0.00000
     23 C19        -5.3018   -5.8267   -6.3927 C.ar      1 <0>        0.00000
     24 C20        -5.0753   -5.2456   -5.1450 C.ar      1 <0>        0.00000
     25 C21        -4.8848   -5.9383   -8.8219 C.2       1 <0>        0.00000
     26 O2         -5.6485   -6.8924   -9.0214 O.2       1 <0>        0.00000
     27 O3         -4.1597   -5.3210   -9.8043 O.3       1 <0>        0.00000
     28 C22        -4.3105   -5.8272  -11.1350 C.3       1 <0>        0.00000
     29 C23        -3.4345   -5.0169  -12.0602 C.3       1 <0>        0.00000
     30 H1          8.7982   -2.8462    3.6436 H         1 <0>        0.00000
     31 H2          8.9505   -1.1363    3.1698 H         1 <0>        0.00000
     32 H3          8.2821   -1.5480    4.7482 H         1 <0>        0.00000
     33 H4          5.9827   -2.4276    4.9612 H         1 <0>        0.00000
     34 H5          3.7439   -2.5021    3.8942 H         1 <0>        0.00000
     35 H6          2.2968   -1.0053    2.9093 H         1 <0>        0.00000
     36 H7          2.3478   -0.1484    1.3603 H         1 <0>        0.00000
     37 H8          0.6720   -2.6041    2.0848 H         1 <0>        0.00000
     38 H9          0.0784   -0.9739    1.7730 H         1 <0>        0.00000
     39 H10         0.8285   -1.1143   -0.5855 H         1 <0>        0.00000
     40 H11         1.7139   -3.9601    0.1189 H         1 <0>        0.00000
     41 H12         1.7953   -3.2164   -1.4777 H         1 <0>        0.00000
     42 H13         3.4301   -1.5617   -0.7010 H         1 <0>        0.00000
     43 H14         3.9804   -3.1920   -0.2813 H         1 <0>        0.00000
     44 H15        -1.4029   -2.1203    0.2823 H         1 <0>        0.00000
     45 H16        -0.6487   -3.6901   -0.0047 H         1 <0>        0.00000
     46 H17        -0.9628   -1.4743   -2.1022 H         1 <0>        0.00000
     47 H18        -0.2093   -3.0445   -2.3878 H         1 <0>        0.00000
     48 H19        -3.1231   -2.6259   -1.5149 H         1 <0>        0.00000
     49 H20        -2.3758   -4.1833   -1.7983 H         1 <0>        0.00000
     50 H21        -1.9584   -3.5644   -4.1933 H         1 <0>        0.00000
     51 H22        -2.7195   -1.9790   -3.9038 H         1 <0>        0.00000
     52 H23        -2.8501   -2.8417   -6.0677 H         1 <0>        0.00000
     53 H24        -3.2495   -3.8666   -8.2742 H         1 <0>        0.00000
     54 H25        -5.9918   -6.6629   -6.4739 H         1 <0>        0.00000
     55 H26        -5.5895   -5.6340   -4.2701 H         1 <0>        0.00000
     56 H27        -4.0150   -6.8766  -11.1356 H         1 <0>        0.00000
     57 H28        -5.3607   -5.7412  -11.4151 H         1 <0>        0.00000
     58 H29        -3.5262   -5.3785  -13.0881 H         1 <0>        0.00000
     59 H30        -3.7119   -3.9580  -12.0319 H         1 <0>        0.00000
     60 H31        -2.3843   -5.0790  -11.7562 H         1 <0>        0.00000
@<TRIPOS>BOND
     1    1    2 1
     2    2    3 ar
     3    2    7 ar
     4    3    4 ar
     5    4    5 ar
     6    5    6 ar
     7    5    8 1
     8    6    7 ar
     9    8    9 1
    10    8   13 1
    11    9   10 1
    12   10   11 1
    13   11   12 1
    14   11   14 1
    15   12   13 1
    16   14   15 1
    17   15   16 1
    18   16   17 1
    19   17   18 1
    20   18   19 1
    21   19   20 ar
    22   19   24 ar
    23   20   21 ar
    24   21   22 ar
    25   22   23 ar
    26   22   25 1
    27   23   24 ar
    28   25   26 2
    29   25   27 1
    30   27   28 1
    31   28   29 1
    32    1   30 1
    33    1   31 1
    34    1   32 1
    35    3   33 1
    36    4   34 1
    37    9   35 1
    38    9   36 1
    39   10   37 1
    40   10   38 1
    41   11   39 1
    42   12   40 1
    43   12   41 1
    44   13   42 1
    45   13   43 1
    46   14   44 1
    47   14   45 1
    48   15   46 1
    49   15   47 1
    50   16   48 1
    51   16   49 1
    52   17   50 1
    53   17   51 1
    54   20   52 1
    55   21   53 1
    56   23   54 1
    57   24   55 1
    58   28   56 1
    59   28   57 1
    60   29   58 1
    61   29   59 1
    62   29   60 1
@<TRIPOS>SUBSTRUCTURE
     1 <0>         1 GROUP 0 A     ****
@<TRIPOS>MOLECULE
MiniDrugBank_247
   47    49     1     0     0
SMALL
NO_CHARGES

@<TRIPOS>ATOM
      1 N1         -1.7099   -2.7130    5.6467 N.pl3     1 <0>        0.00000
      2 C1         -0.8370   -1.7673    5.0822 C.ar      1 <0>        0.00000
      3 N2          0.3947   -1.5749    5.6127 N.ar      1 <0>        0.00000
      4 C2          1.1916   -0.6500    5.0251 C.ar      1 <0>        0.00000
      5 N3          0.9333    0.1341    3.9558 N.ar      1 <0>        0.00000
      6 C3         -0.2984   -0.1082    3.4832 C.ar      1 <0>        0.00000
      7 C4         -1.2213   -1.0175    3.9750 C.ar      1 <0>        0.00000
      8 N4         -2.3753   -0.9879    3.2329 N.ar      1 <0>        0.00000
      9 C5         -2.1580   -0.0772    2.3072 C.ar      1 <0>        0.00000
     10 N5         -0.9134    0.4840    2.4171 N.pl3     1 <0>        0.00000
     11 C6         -0.3571    1.5191    1.5483 C.3       1 <0>        0.00000
     12 O1         -1.4267    2.3479    1.0536 O.3       1 <0>        0.00000
     13 C7         -1.2921    2.4556   -0.3738 C.3       1 <0>        0.00000
     14 C8         -1.6307    3.8699   -0.8096 C.3       1 <0>        0.00000
     15 O2         -0.7414    4.7732   -0.1769 O.3       1 <0>        0.00000
     16 P1         -1.2653    6.2692    0.1509 P.3       1 <0>        0.00000
     17 O3         -2.1334    6.6621   -1.1561 O.3       1 <0>        0.00000
     18 O4         -0.1969    7.2557    0.5216 O.2       1 <0>        0.00000
     19 O5         -2.3945    6.0247    1.2801 O.3       1 <0>        0.00000
     20 P2         -3.3409    7.0657    2.0747 P.3       1 <0>        0.00000
     21 O6         -2.2805    8.0195    2.8363 O.3       1 <0>        0.00000
     22 O7         -4.3403    7.7848    1.2175 O.2       1 <0>        0.00000
     23 O8         -3.9613    6.1634    3.2610 O.3       1 <0>        0.00000
     24 P3         -4.8690    4.8252    3.2476 P.3       1 <0>        0.00000
     25 O9         -3.9478    3.7459    2.4651 O.3       1 <0>        0.00000
     26 O10        -4.7766    4.3019    4.7788 O.3       1 <0>        0.00000
     27 S1         -6.6723    5.0262    2.5605 S.2       1 <0>        0.00000
     28 C9          0.1385    2.0525   -0.6912 C.3       1 <0>        0.00000
     29 O11         0.2665    1.5431   -2.0049 O.3       1 <0>        0.00000
     30 C10         0.3852    0.9698    0.3367 C.3       1 <0>        0.00000
     31 O12         1.7661    0.8230    0.6176 O.3       1 <0>        0.00000
     32 H1         -2.6468   -2.8253    5.2823 H         1 <0>        0.00000
     33 H2         -1.4430   -3.2214    6.4794 H         1 <0>        0.00000
     34 H3          2.1701   -0.5220    5.4759 H         1 <0>        0.00000
     35 H4         -2.8577    0.2161    1.5365 H         1 <0>        0.00000
     36 H5          0.2960    2.1391    2.1995 H         1 <0>        0.00000
     37 H6         -2.0069    1.7632   -0.8328 H         1 <0>        0.00000
     38 H7         -2.6553    4.1249   -0.5227 H         1 <0>        0.00000
     39 H8         -1.5258    3.9731   -1.8937 H         1 <0>        0.00000
     40 H9         -2.6430    7.5002   -1.1529 H         1 <0>        0.00000
     41 H10        -1.6915    8.5948    2.3030 H         1 <0>        0.00000
     42 H11        -3.0696    3.5165    2.8371 H         1 <0>        0.00000
     43 H12        -3.8964    4.0772    5.1490 H         1 <0>        0.00000
     44 H13         0.8446    2.8814   -0.5657 H         1 <0>        0.00000
     45 H14        -0.0139    2.2478   -2.6142 H         1 <0>        0.00000
     46 H15        -0.0038    0.0013    0.0006 H         1 <0>        0.00000
     47 H16         1.8488    0.1163    1.2803 H         1 <0>        0.00000
@<TRIPOS>BOND
     1    1    2 1
     2    2    3 ar
     3    3    4 ar
     4    4    5 ar
     5    5    6 ar
     6    6    7 ar
     7    2    7 ar
     8    7    8 1
     9    8    9 2
    10    9   10 1
    11    6   10 1
    12   10   11 1
    13   11   12 1
    14   12   13 1
    15   13   14 1
    16   14   15 1
    17   15   16 1
    18   16   17 1
    19   16   18 2
    20   16   19 1
    21   19   20 1
    22   20   21 1
    23   20   22 2
    24   20   23 1
    25   23   24 1
    26   24   25 1
    27   24   26 1
    28   24   27 2
    29   13   28 1
    30   28   29 1
    31   28   30 1
    32   11   30 1
    33   30   31 1
    34    1   32 1
    35    1   33 1
    36    4   34 1
    37    9   35 1
    38   11   36 1
    39   13   37 1
    40   14   38 1
    41   14   39 1
    42   17   40 1
    43   21   41 1
    44   25   42 1
    45   26   43 1
    46   28   44 1
    47   29   45 1
    48   30   46 1
    49   31   47 1
@<TRIPOS>SUBSTRUCTURE
     1 <0>         1 GROUP 0 A     ****
@<TRIPOS>MOLECULE
MiniDrugBank_248
   41    43     1     0     0
SMALL
NO_CHARGES

@<TRIPOS>ATOM
      1 C1          4.6345    2.5079    5.5205 C.3       1 <0>        0.00000
      2 O1          4.1862    2.8769    4.2216 O.3       1 <0>        0.00000
      3 C2          3.2794    2.0452    3.6236 C.ar      1 <0>        0.00000
      4 N1          2.8909    0.9525    4.3144 N.ar      1 <0>        0.00000
      5 N2          1.9906    0.1002    3.7550 N.ar      1 <0>        0.00000
      6 C3          1.5077    0.3685    2.5234 C.ar      1 <0>        0.00000
      7 C4          1.8867    1.4777    1.7943 C.ar      1 <0>        0.00000
      8 C5          2.8030    2.3447    2.3631 C.ar      1 <0>        0.00000
      9 N3          0.5857   -0.5037    1.9508 N.pl3     1 <0>        0.00000
     10 C6         -0.4258   -0.0206    1.0109 C.3       1 <0>        0.00000
     11 C7         -1.6703   -0.9121    1.0404 C.3       1 <0>        0.00000
     12 N4         -1.3213   -2.3063    0.7687 N.pl3     1 <0>        0.00000
     13 C8          0.0265   -2.7567    1.1159 C.3       1 <0>        0.00000
     14 C9          0.5987   -1.9309    2.2714 C.3       1 <0>        0.00000
     15 C10        -2.2442   -3.1787    0.1978 C.ar      1 <0>        0.00000
     16 C11        -3.6079   -3.0021    0.4315 C.ar      1 <0>        0.00000
     17 C12        -4.5325   -3.8757   -0.1409 C.ar      1 <0>        0.00000
     18 C13        -4.0933   -4.9260   -0.9470 C.ar      1 <0>        0.00000
     19 C14        -2.7295   -5.1026   -1.1807 C.ar      1 <0>        0.00000
     20 C15        -1.8049   -4.2290   -0.6083 C.ar      1 <0>        0.00000
     21 C16        -5.9907   -3.6872    0.1082 C.3       1 <0>        0.00000
     22 H1          5.3505    3.2491    5.8839 H         1 <0>        0.00000
     23 H2          5.1042    1.5219    5.4783 H         1 <0>        0.00000
     24 H3          3.7764    2.4719    6.1958 H         1 <0>        0.00000
     25 H4          1.4869    1.6763    0.8053 H         1 <0>        0.00000
     26 H5          3.1316    3.2300    1.8301 H         1 <0>        0.00000
     27 H6         -0.7176    1.0129    1.2357 H         1 <0>        0.00000
     28 H7          0.0089   -0.0200    0.0036 H         1 <0>        0.00000
     29 H8         -2.1501   -0.8386    2.0252 H         1 <0>        0.00000
     30 H9         -2.3881   -0.5544    0.2926 H         1 <0>        0.00000
     31 H10         0.0340   -3.8184    1.3928 H         1 <0>        0.00000
     32 H11         0.6657   -2.6511    0.2307 H         1 <0>        0.00000
     33 H12         1.6252   -2.2586    2.4745 H         1 <0>        0.00000
     34 H13         0.0062   -2.1083    3.1783 H         1 <0>        0.00000
     35 H14        -3.9522   -2.1837    1.0597 H         1 <0>        0.00000
     36 H15        -4.8068   -5.6111   -1.3977 H         1 <0>        0.00000
     37 H16        -2.3878   -5.9206   -1.8083 H         1 <0>        0.00000
     38 H17        -0.7446   -4.3762   -0.7973 H         1 <0>        0.00000
     39 H18        -6.4269   -3.0308   -0.6548 H         1 <0>        0.00000
     40 H19        -6.5254   -4.6457    0.0895 H         1 <0>        0.00000
     41 H20        -6.1720   -3.2418    1.0952 H         1 <0>        0.00000
@<TRIPOS>BOND
     1    1    2 1
     2    2    3 1
     3    3    4 ar
     4    3    8 ar
     5    4    5 ar
     6    5    6 ar
     7    6    7 ar
     8    6    9 1
     9    7    8 ar
    10    9   10 1
    11    9   14 1
    12   10   11 1
    13   11   12 1
    14   12   13 1
    15   12   15 1
    16   13   14 1
    17   15   16 ar
    18   15   20 ar
    19   16   17 ar
    20   17   18 ar
    21   17   21 1
    22   18   19 ar
    23   19   20 ar
    24    1   22 1
    25    1   23 1
    26    1   24 1
    27    7   25 1
    28    8   26 1
    29   10   27 1
    30   10   28 1
    31   11   29 1
    32   11   30 1
    33   13   31 1
    34   13   32 1
    35   14   33 1
    36   14   34 1
    37   16   35 1
    38   18   36 1
    39   19   37 1
    40   20   38 1
    41   21   39 1
    42   21   40 1
    43   21   41 1
@<TRIPOS>SUBSTRUCTURE
     1 <0>         1 GROUP 0 A     ****
@<TRIPOS>MOLECULE
MiniDrugBank_249
   20    20     1     0     0
SMALL
NO_CHARGES

@<TRIPOS>ATOM
      1 N1          0.0919   -1.0785    1.4902 N.3       1 <0>        0.00000
      2 C1         -0.2591   -0.2101    0.3676 C.3       1 <0>        0.00000
      3 C2          0.9197    0.7063    0.0157 C.3       1 <0>        0.00000
      4 C3          0.4934    1.8971   -0.7789 C.ar      1 <0>        0.00000
      5 C4          0.1028    3.0931   -0.3920 C.ar      1 <0>        0.00000
      6 O1         -0.2267    3.9776   -1.3894 O.3       1 <0>        0.00000
      7 N2         -0.0062    3.2114   -2.5556 N.am      1 <0>        0.00000
      8 C5          0.4306    1.9461   -2.2330 C.ar      1 <0>        0.00000
      9 O2          0.7151    1.0308   -2.9866 O.2       1 <0>        0.00000
     10 C6         -0.6523   -1.1305   -0.7760 C.2       1 <0>        0.00000
     11 O3         -1.5738   -0.5591   -1.5971 O.3       1 <0>        0.00000
     12 O4         -0.2117   -2.2577   -0.9588 O.2       1 <0>        0.00000
     13 H1          0.0030   -0.7272    2.4308 H         1 <0>        0.00000
     14 H2          0.6036   -1.9289    1.3133 H         1 <0>        0.00000
     15 H3         -1.1300    0.4017    0.6329 H         1 <0>        0.00000
     16 H4          1.6859    0.1603   -0.5484 H         1 <0>        0.00000
     17 H5          1.4002    1.0713    0.9318 H         1 <0>        0.00000
     18 H6          0.0038    3.4815    0.6064 H         1 <0>        0.00000
     19 H7         -0.1498    3.5468   -3.4994 H         1 <0>        0.00000
     20 H8         -1.8458    0.3484   -1.3416 H         1 <0>        0.00000
@<TRIPOS>BOND
     1    1    2 1
     2    2    3 1
     3    3    4 1
     4    4    5 2
     5    5    6 1
     6    6    7 1
     7    7    8 am
     8    4    8 1
     9    8    9 2
    10    2   10 1
    11   10   11 1
    12   10   12 2
    13    1   13 1
    14    1   14 1
    15    2   15 1
    16    3   16 1
    17    3   17 1
    18    5   18 1
    19    7   19 1
    20   11   20 1
@<TRIPOS>SUBSTRUCTURE
     1 <0>         1 GROUP 0 A     ****
@<TRIPOS>MOLECULE
MiniDrugBank_250
   17    18     1     0     0
SMALL
NO_CHARGES

@<TRIPOS>ATOM
      1 N1         -2.4733    0.5413    1.9075 N.3       1 <0>        0.00000
      2 C1         -1.8544    0.6271    0.5853 C.3       1 <0>        0.00000
      3 N2         -0.6262    1.4688    0.5860 N.2       1 <0>        0.00000
      4 C2          0.2640    0.6956    0.0693 C.ar      1 <0>        0.00000
      5 C3          1.6807    0.9733   -0.1917 C.ar      1 <0>        0.00000
      6 C4          2.4059   -0.0100   -0.7407 C.ar      1 <0>        0.00000
      7 C5          1.8601   -1.3079   -1.0798 C.ar      1 <0>        0.00000
      8 C6          0.5799   -1.6450   -0.8756 C.ar      1 <0>        0.00000
      9 C7         -0.2929   -0.6293   -0.2765 C.ar      1 <0>        0.00000
     10 N3         -1.5438   -0.7139    0.0162 N.2       1 <0>        0.00000
     11 H1         -3.0909    1.2780    2.2106 H         1 <0>        0.00000
     12 H2         -2.1245   -0.1325    2.5713 H         1 <0>        0.00000
     13 H3         -2.5763    1.1085   -0.0855 H         1 <0>        0.00000
     14 H4          2.0962    1.9403    0.0586 H         1 <0>        0.00000
     15 H5          3.4587    0.1489   -0.9521 H         1 <0>        0.00000
     16 H6          2.5437   -2.0268   -1.5207 H         1 <0>        0.00000
     17 H7          0.1800   -2.6171   -1.1316 H         1 <0>        0.00000
@<TRIPOS>BOND
     1    1    2 1
     2    2    3 1
     3    3    4 2
     4    4    5 ar
     5    5    6 ar
     6    6    7 ar
     7    7    8 ar
     8    8    9 ar
     9    4    9 ar
    10    9   10 2
    11    2   10 1
    12    1   11 1
    13    1   12 1
    14    2   13 1
    15    5   14 1
    16    6   15 1
    17    7   16 1
    18    8   17 1
@<TRIPOS>SUBSTRUCTURE
     1 <0>         1 GROUP 0 A     ****
@<TRIPOS>MOLECULE
MiniDrugBank_251
   42    44     1     0     0
SMALL
NO_CHARGES

@<TRIPOS>ATOM
      1 Cl1        -0.4073    0.9390    1.4715 Cl        1 <0>        0.00000
      2 C1          7.0885   -3.6745    2.1931 C.ar      1 <0>        0.00000
      3 C2          7.4652   -4.3799    1.0253 C.ar      1 <0>        0.00000
      4 C3          6.3919   -4.3016    0.1687 C.ar      1 <0>        0.00000
      5 O1          5.3799   -3.5932    0.7350 O.3       1 <0>        0.00000
      6 C4          5.8118   -3.2152    1.9667 C.ar      1 <0>        0.00000
      7 C5          4.8961   -2.4239    2.8063 C.2       1 <0>        0.00000
      8 O2          5.2411   -2.0250    3.9166 O.2       1 <0>        0.00000
      9 N1          3.6617   -2.1517    2.2144 N.am      1 <0>        0.00000
     10 C6          2.6071   -1.4001    2.7413 C.ar      1 <0>        0.00000
     11 C7          2.4317   -1.3646    4.1247 C.ar      1 <0>        0.00000
     12 C8          1.3869   -0.6232    4.6764 C.ar      1 <0>        0.00000
     13 C9          0.5175    0.0826    3.8447 C.ar      1 <0>        0.00000
     14 C10         0.6929    0.0470    2.4613 C.ar      1 <0>        0.00000
     15 C11         1.7377   -0.6944    1.9097 C.ar      1 <0>        0.00000
     16 N2          1.9200   -0.7367    0.5229 N.pl3     1 <0>        0.00000
     17 C12         1.2539   -1.7771   -0.2666 C.3       1 <0>        0.00000
     18 C13         1.1612   -1.3596   -1.7364 C.3       1 <0>        0.00000
     19 C14         3.1908   -0.2420   -0.0214 C.3       1 <0>        0.00000
     20 C15         3.0348    0.1268   -1.4984 C.3       1 <0>        0.00000
     21 N3          2.4811   -0.9956   -2.2659 N.3       1 <0>        0.00000
     22 C16         2.3877   -0.6507   -3.6840 C.3       1 <0>        0.00000
     23 C17         3.7012   -0.7544   -4.3080 C.1       1 <0>        0.00000
     24 C18         4.7748   -0.8346   -4.8395 C.1       1 <0>        0.00000
     25 Br1         6.3160   -5.0702   -1.5622 Br        1 <0>        0.00000
     26 H1          7.6786   -3.5220    3.0856 H         1 <0>        0.00000
     27 H2          8.4055   -4.8802    0.8403 H         1 <0>        0.00000
     28 H3          3.4946   -2.5079    1.2766 H         1 <0>        0.00000
     29 H4          3.1034   -1.9091    4.7834 H         1 <0>        0.00000
     30 H5          1.2519   -0.5937    5.7536 H         1 <0>        0.00000
     31 H6         -0.2900    0.6572    4.2914 H         1 <0>        0.00000
     32 H7          1.8084   -2.7213   -0.1812 H         1 <0>        0.00000
     33 H8          0.2404   -1.9519    0.1155 H         1 <0>        0.00000
     34 H9          0.7476   -2.2010   -2.3056 H         1 <0>        0.00000
     35 H10         0.4581   -0.5214   -1.8360 H         1 <0>        0.00000
     36 H11         3.5191    0.6461    0.5329 H         1 <0>        0.00000
     37 H12         3.9673   -1.0105    0.0910 H         1 <0>        0.00000
     38 H13         2.3914    1.0127   -1.5885 H         1 <0>        0.00000
     39 H14         4.0223    0.3998   -1.8898 H         1 <0>        0.00000
     40 H15         1.6755   -1.3284   -4.1499 H         1 <0>        0.00000
     41 H16         1.9986    0.3625   -3.7618 H         1 <0>        0.00000
     42 H17         5.7271   -0.9062   -5.3108 H         1 <0>        0.00000
@<TRIPOS>BOND
     1    2    6 2
     2    2    3 1
     3    3    4 2
     4    4   25 1
     5    4    5 1
     6    5    6 1
     7    6    7 1
     8    7    9 am
     9    7    8 2
    10    9   10 1
    11   10   15 ar
    12   10   11 ar
    13   11   12 ar
    14   12   13 ar
    15   13   14 ar
    16    1   14 1
    17   14   15 ar
    18   15   16 1
    19   16   17 1
    20   17   18 1
    21   16   19 1
    22   19   20 1
    23   20   21 1
    24   18   21 1
    25   21   22 1
    26   22   23 1
    27   23   24 3
    28    2   26 1
    29    3   27 1
    30    9   28 1
    31   11   29 1
    32   12   30 1
    33   13   31 1
    34   17   32 1
    35   17   33 1
    36   18   34 1
    37   18   35 1
    38   19   36 1
    39   19   37 1
    40   20   38 1
    41   20   39 1
    42   22   40 1
    43   22   41 1
    44   24   42 1
@<TRIPOS>SUBSTRUCTURE
     1 <0>         1 GROUP 0 A     ****
@<TRIPOS>MOLECULE
MiniDrugBank_252
   15    14     1     0     0
SMALL
NO_CHARGES

@<TRIPOS>ATOM
      1 O1          1.5772   -0.1027    1.1972 O.3       1 <0>        0.00000
      2 C1          0.1571   -0.0933    1.0790 C.3       1 <0>        0.00000
      3 C2         -0.3862   -1.4223    1.5987 C.3       1 <0>        0.00000
      4 O2         -0.0150   -1.5868    2.9680 O.3       1 <0>        0.00000
      5 C3         -1.9000   -1.5967    1.4471 C.3       1 <0>        0.00000
      6 S1         -2.8939   -0.3447    2.3196 S.3       1 <0>        0.00000
      7 O3         -4.3936   -0.9102    1.8900 O.3       1 <0>        0.00000
      8 H1          1.8974    0.7517    0.8607 H         1 <0>        0.00000
      9 H2         -0.0808    0.0600    0.0220 H         1 <0>        0.00000
     10 H3         -0.2256    0.7450    1.6692 H         1 <0>        0.00000
     11 H4          0.1031   -2.2414    1.0586 H         1 <0>        0.00000
     12 H5          0.9535   -1.5750    2.9918 H         1 <0>        0.00000
     13 H6         -2.1996   -2.5796    1.8249 H         1 <0>        0.00000
     14 H7         -2.1749   -1.5416    0.3886 H         1 <0>        0.00000
     15 H8         -4.4949   -0.9055    0.9093 H         1 <0>        0.00000
@<TRIPOS>BOND
     1    1    2 1
     2    2    3 1
     3    3    4 1
     4    3    5 1
     5    5    6 1
     6    6    7 1
     7    1    8 1
     8    2    9 1
     9    2   10 1
    10    3   11 1
    11    4   12 1
    12    5   13 1
    13    5   14 1
    14    7   15 1
@<TRIPOS>SUBSTRUCTURE
     1 <0>         1 GROUP 0 A     ****
@<TRIPOS>MOLECULE
MiniDrugBank_253
   43    43     1     0     0
SMALL
NO_CHARGES

@<TRIPOS>ATOM
      1 O1          0.8553   -1.6285   -2.2582 O.3       1 <0>        0.00000
      2 N1          1.9081   -1.0028   -1.5378 N.pl3     1 <0>        0.00000
      3 O2          2.8401   -0.4305   -2.1871 O.2       1 <0>        0.00000
      4 C1          1.8851   -1.0363   -0.1124 C.ar      1 <0>        0.00000
      5 C2          0.8066   -0.4630    0.5610 C.ar      1 <0>        0.00000
      6 C3          0.7638   -0.4841    1.9551 C.ar      1 <0>        0.00000
      7 C4          1.7997   -1.0786    2.6757 C.ar      1 <0>        0.00000
      8 C5          2.8783   -1.6520    2.0022 C.ar      1 <0>        0.00000
      9 C6          2.9210   -1.6309    0.6081 C.ar      1 <0>        0.00000
     10 N2          4.0218   -2.2164   -0.0559 N.pl3     1 <0>        0.00000
     11 C7          3.8198   -3.3115   -0.9818 C.3       1 <0>        0.00000
     12 C8          4.5564   -4.5616   -0.5572 C.3       1 <0>        0.00000
     13 Br1         3.9492   -5.1616    1.1952 Br        1 <0>        0.00000
     14 C9          5.3627   -1.7186    0.1717 C.3       1 <0>        0.00000
     15 C10         5.5032   -0.2620   -0.2084 C.3       1 <0>        0.00000
     16 Br2         7.3204    0.3654    0.1135 Br        1 <0>        0.00000
     17 C11         1.7851   -1.1163    4.1324 C.2       1 <0>        0.00000
     18 O3          1.2611   -2.0704    4.7311 O.2       1 <0>        0.00000
     19 N3          2.4019   -0.0529    4.7988 N.am      1 <0>        0.00000
     20 C12         2.4904    0.0414    6.2383 C.3       1 <0>        0.00000
     21 C13         3.7580   -0.6265    6.6853 C.2       1 <0>        0.00000
     22 O4          4.3165   -1.5625    6.1333 O.2       1 <0>        0.00000
     23 C14         4.3228   -0.1352    7.9880 C.2       1 <0>        0.00000
     24 O5          5.3099   -0.6686    8.4631 O.2       1 <0>        0.00000
     25 N4         -0.3372    0.1019    2.6180 N.pl3     1 <0>        0.00000
     26 O6         -1.3965    0.7105    1.8600 O.3       1 <0>        0.00000
     27 O7         -0.4626    0.1291    3.9020 O.2       1 <0>        0.00000
     28 H1          1.1189   -1.4560   -3.1778 H         1 <0>        0.00000
     29 H2         -0.0001    0.0014   -0.0024 H         1 <0>        0.00000
     30 H3          3.6866   -2.1157    2.5638 H         1 <0>        0.00000
     31 H4          2.7425   -3.4725   -1.0596 H         1 <0>        0.00000
     32 H5          4.1901   -2.9627   -1.9476 H         1 <0>        0.00000
     33 H6          5.6369   -4.4114   -0.4812 H         1 <0>        0.00000
     34 H7          4.3492   -5.3865   -1.2440 H         1 <0>        0.00000
     35 H8          5.5977   -1.8962    1.2232 H         1 <0>        0.00000
     36 H9          6.0221   -2.3358   -0.4414 H         1 <0>        0.00000
     37 H10         4.8388    0.3912    0.3642 H         1 <0>        0.00000
     38 H11         5.3230   -0.1206   -1.2773 H         1 <0>        0.00000
     39 H12         2.8696    0.6683    4.2595 H         1 <0>        0.00000
     40 H13         2.4997    1.1018    6.4871 H         1 <0>        0.00000
     41 H14         1.6251   -0.4578    6.6707 H         1 <0>        0.00000
     42 H15         3.7783    0.7006    8.4544 H         1 <0>        0.00000
     43 H16        -2.0037    1.0226    2.5521 H         1 <0>        0.00000
@<TRIPOS>BOND
     1    1    2 1
     2    2    3 2
     3    2    4 1
     4    4    5 ar
     5    5    6 ar
     6    6    7 ar
     7    7    8 ar
     8    8    9 ar
     9    4    9 ar
    10    9   10 1
    11   10   11 1
    12   11   12 1
    13   12   13 1
    14   10   14 1
    15   14   15 1
    16   15   16 1
    17    7   17 1
    18   17   18 2
    19   17   19 am
    20   19   20 1
    21   20   21 1
    22   21   22 2
    23   21   23 1
    24   23   24 2
    25    6   25 1
    26   25   26 1
    27   25   27 2
    28    1   28 1
    29    5   29 1
    30    8   30 1
    31   11   31 1
    32   11   32 1
    33   12   33 1
    34   12   34 1
    35   14   35 1
    36   14   36 1
    37   15   37 1
    38   15   38 1
    39   19   39 1
    40   20   40 1
    41   20   41 1
    42   23   42 1
    43   26   43 1
@<TRIPOS>SUBSTRUCTURE
     1 <0>         1 GROUP 0 A     ****
@<TRIPOS>MOLECULE
MiniDrugBank_254
   11    10     1     0     0
SMALL
NO_CHARGES

@<TRIPOS>ATOM
      1 C1          0.8719   -0.5290    0.4006 C.3       1 <0>        0.00000
      2 C2          1.2565    0.0257    1.7670 C.3       1 <0>        0.00000
      3 Cl1        -0.0979   -0.2068    2.9138 Cl        1 <0>        0.00000
      4 C3          2.5540   -0.5610    2.3257 C.3       1 <0>        0.00000
      5 Cl2         2.5045   -2.3283    2.5450 Cl        1 <0>        0.00000
      6 H1          1.6721   -0.4089   -0.3369 H         1 <0>        0.00000
      7 H2          0.6426   -1.5983    0.4680 H         1 <0>        0.00000
      8 H3         -0.0210   -0.0241    0.0172 H         1 <0>        0.00000
      9 H4          1.3857    1.1097    1.6751 H         1 <0>        0.00000
     10 H5          3.3875   -0.3462    1.6492 H         1 <0>        0.00000
     11 H6          2.7936   -0.1183    3.2981 H         1 <0>        0.00000
@<TRIPOS>BOND
     1    1    2 1
     2    2    3 1
     3    2    4 1
     4    4    5 1
     5    1    6 1
     6    1    7 1
     7    1    8 1
     8    2    9 1
     9    4   10 1
    10    4   11 1
@<TRIPOS>SUBSTRUCTURE
     1 <0>         1 GROUP 0 A     ****
@<TRIPOS>MOLECULE
MiniDrugBank_255
   43    43     1     0     0
SMALL
NO_CHARGES

@<TRIPOS>ATOM
      1 C1         -0.1414   -1.2418   -2.1285 C.3       1 <0>        0.00000
      2 C2          0.0997   -1.8534   -0.7534 C.3       1 <0>        0.00000
      3 O1          0.7414   -0.8849    0.0749 O.3       1 <0>        0.00000
      4 C3         -1.1890   -2.3545   -0.0938 C.3       1 <0>        0.00000
      5 N1         -0.9670   -2.9340    1.2071 N.am      1 <0>        0.00000
      6 C4         -0.7313   -4.2886    1.4122 C.2       1 <0>        0.00000
      7 O2         -0.6854   -5.1362    0.5231 O.2       1 <0>        0.00000
      8 C5         -0.5872   -4.6287    2.8913 C.3       1 <0>        0.00000
      9 C6         -1.9517   -4.9879    3.4908 C.3       1 <0>        0.00000
     10 C7         -1.9702   -4.8942    4.9970 C.ar      1 <0>        0.00000
     11 C8         -1.6418   -6.0084    5.7691 C.ar      1 <0>        0.00000
     12 C9         -1.6601   -5.9222    7.1612 C.ar      1 <0>        0.00000
     13 I1         -1.1575   -7.6272    8.2641 I         1 <0>        0.00000
     14 C10        -2.0069   -4.7217    7.7811 C.ar      1 <0>        0.00000
     15 O3         -2.0227   -4.6363    9.1442 O.3       1 <0>        0.00000
     16 C11        -2.3353   -3.6075    7.0089 C.ar      1 <0>        0.00000
     17 I2         -2.8615   -1.7798    7.8805 I         1 <0>        0.00000
     18 C12        -2.3170   -3.6937    5.6169 C.ar      1 <0>        0.00000
     19 N2          0.3538   -5.7160    2.9889 N.am      1 <0>        0.00000
     20 C13         1.7234   -5.5308    3.0644 C.2       1 <0>        0.00000
     21 C14         2.5069   -6.7977    3.1614 C.3       1 <0>        0.00000
     22 O4          2.3113   -4.4557    3.0591 O.2       1 <0>        0.00000
     23 C15        -2.1902   -1.2273    0.0817 C.2       1 <0>        0.00000
     24 O5         -3.0087   -1.1027   -0.9959 O.3       1 <0>        0.00000
     25 O6         -2.2967   -0.5274    1.0805 O.2       1 <0>        0.00000
     26 H1         -0.6341   -1.9509   -2.8022 H         1 <0>        0.00000
     27 H2          0.7961   -0.9132   -2.5867 H         1 <0>        0.00000
     28 H3         -0.8100   -0.3778   -2.0457 H         1 <0>        0.00000
     29 H4          0.8024   -2.6874   -0.8628 H         1 <0>        0.00000
     30 H5          0.8778   -1.3076    0.9364 H         1 <0>        0.00000
     31 H6         -1.6606   -3.1404   -0.6948 H         1 <0>        0.00000
     32 H7         -0.9857   -2.3103    2.0109 H         1 <0>        0.00000
     33 H8         -0.1355   -3.7768    3.4130 H         1 <0>        0.00000
     34 H9         -2.2497   -5.9984    3.1798 H         1 <0>        0.00000
     35 H10        -2.7313   -4.3234    3.0953 H         1 <0>        0.00000
     36 H11        -1.3744   -6.9375    5.2705 H         1 <0>        0.00000
     37 H12        -1.7713   -5.4875    9.5327 H         1 <0>        0.00000
     38 H13        -2.5715   -2.8339    5.0011 H         1 <0>        0.00000
     39 H14        -0.0198   -6.6622    3.0073 H         1 <0>        0.00000
     40 H15         2.7890   -7.1944    2.1729 H         1 <0>        0.00000
     41 H16         3.4569   -6.6640    3.7033 H         1 <0>        0.00000
     42 H17         1.9965   -7.6295    3.6726 H         1 <0>        0.00000
     43 H18        -2.8239   -1.7206   -1.7352 H         1 <0>        0.00000
@<TRIPOS>BOND
     1    1    2 1
     2    2    3 1
     3    2    4 1
     4    4    5 1
     5    5    6 am
     6    6    7 2
     7    6    8 1
     8    8    9 1
     9    9   10 1
    10   10   11 ar
    11   11   12 ar
    12   12   13 1
    13   12   14 ar
    14   14   15 1
    15   14   16 ar
    16   16   17 1
    17   16   18 ar
    18   10   18 ar
    19    8   19 1
    20   19   20 am
    21   20   21 1
    22   20   22 2
    23    4   23 1
    24   23   24 1
    25   23   25 2
    26    1   26 1
    27    1   27 1
    28    1   28 1
    29    2   29 1
    30    3   30 1
    31    4   31 1
    32    5   32 1
    33    8   33 1
    34    9   34 1
    35    9   35 1
    36   11   36 1
    37   15   37 1
    38   18   38 1
    39   19   39 1
    40   21   40 1
    41   21   41 1
    42   21   42 1
    43   24   43 1
@<TRIPOS>SUBSTRUCTURE
     1 <0>         1 GROUP 0 A     ****
@<TRIPOS>MOLECULE
MiniDrugBank_256
   31    32     1     0     0
SMALL
NO_CHARGES

@<TRIPOS>ATOM
      1 N1          2.9418    1.8514    3.2065 N.3       1 <0>        0.00000
      2 C1          2.2669    0.6737    2.6634 C.3       1 <0>        0.00000
      3 C2          2.3774    0.6560    1.1336 C.3       1 <0>        0.00000
      4 C3          1.3294   -0.2253    0.4937 C.2       1 <0>        0.00000
      5 C4          1.6423   -1.5212    0.2946 C.2       1 <0>        0.00000
      6 C5          0.8561   -2.6536   -0.2955 C.3       1 <0>        0.00000
      7 C6         -0.6609   -2.5269   -0.3387 C.3       1 <0>        0.00000
      8 C7         -1.1495   -1.3896   -1.2250 C.3       1 <0>        0.00000
      9 C8         -0.9371   -0.0359   -0.6346 C.ar      1 <0>        0.00000
     10 C9          0.0855    0.4105    0.1051 C.ar      1 <0>        0.00000
     11 C10        -0.3258    1.8018    0.4179 C.ar      1 <0>        0.00000
     12 O1          0.2972    2.6086    1.0880 O.2       1 <0>        0.00000
     13 N2         -1.5428    2.0132   -0.1794 N.am      1 <0>        0.00000
     14 O2         -1.9717    0.8625   -0.8598 O.3       1 <0>        0.00000
     15 C11         2.9229   -0.5319    3.3161 C.2       1 <0>        0.00000
     16 O3          2.0599   -1.5751    3.4447 O.3       1 <0>        0.00000
     17 O4          4.0858   -0.5845    3.6944 O.2       1 <0>        0.00000
     18 H1          2.4502    2.7310    3.2351 H         1 <0>        0.00000
     19 H2          3.9388    1.8233    3.3532 H         1 <0>        0.00000
     20 H3          1.2088    0.6890    2.9523 H         1 <0>        0.00000
     21 H4          3.3699    0.3129    0.8161 H         1 <0>        0.00000
     22 H5          2.2497    1.6697    0.7344 H         1 <0>        0.00000
     23 H6          2.6381   -1.8431    0.6038 H         1 <0>        0.00000
     24 H7          1.2401   -2.8491   -1.3044 H         1 <0>        0.00000
     25 H8          1.0876   -3.5498    0.2952 H         1 <0>        0.00000
     26 H9         -1.0677   -3.4677   -0.7310 H         1 <0>        0.00000
     27 H10        -1.0602   -2.4195    0.6783 H         1 <0>        0.00000
     28 H11        -0.6837   -1.4371   -2.2163 H         1 <0>        0.00000
     29 H12        -2.2262   -1.5364   -1.3817 H         1 <0>        0.00000
     30 H13        -2.1261    2.8400   -0.1776 H         1 <0>        0.00000
     31 H14         1.1562   -1.4059    3.1021 H         1 <0>        0.00000
@<TRIPOS>BOND
     1    1    2 1
     2    2    3 1
     3    3    4 1
     4    4    5 2
     5    5    6 1
     6    6    7 1
     7    7    8 1
     8    8    9 1
     9    9   10 2
    10    4   10 1
    11   10   11 1
    12   11   12 2
    13   11   13 am
    14   13   14 1
    15    9   14 1
    16    2   15 1
    17   15   16 1
    18   15   17 2
    19    1   18 1
    20    1   19 1
    21    2   20 1
    22    3   21 1
    23    3   22 1
    24    5   23 1
    25    6   24 1
    26    6   25 1
    27    7   26 1
    28    7   27 1
    29    8   28 1
    30    8   29 1
    31   13   30 1
    32   16   31 1
@<TRIPOS>SUBSTRUCTURE
     1 <0>         1 GROUP 0 A     ****
@<TRIPOS>MOLECULE
MiniDrugBank_257
   34    33     1     0     0
SMALL
NO_CHARGES

@<TRIPOS>ATOM
      1 C1         10.5882   -2.8001    3.1959 C.2       1 <0>        0.00000
      2 C2          9.9635   -1.8423    2.5815 C.1       1 <0>        0.00000
      3 C3          9.3379   -0.8811    1.9650 C.2       1 <0>        0.00000
      4 C4          7.8624   -0.8467    1.7114 C.3       1 <0>        0.00000
      5 N1          7.5639   -0.7865    0.2870 N.3       1 <0>        0.00000
      6 C5          6.1456   -0.7540    0.0603 C.3       1 <0>        0.00000
      7 C6          5.7946   -0.6907   -1.4229 C.3       1 <0>        0.00000
      8 C7          4.2820   -0.6560   -1.6672 C.3       1 <0>        0.00000
      9 C8          3.9416   -0.5928   -3.1510 C.3       1 <0>        0.00000
     10 N2          2.5028   -0.5602   -3.3718 N.3       1 <0>        0.00000
     11 C9          2.1948   -0.4999   -4.7945 C.3       1 <0>        0.00000
     12 C10         0.7172   -0.4658   -5.0402 C.2       1 <0>        0.00000
     13 C11         0.0567   -1.3547   -5.7249 C.1       1 <0>        0.00000
     14 C12        -0.6028   -2.2404   -6.4073 C.2       1 <0>        0.00000
     15 H1         10.0468   -3.6601    3.5719 H         1 <0>        0.00000
     16 H2         11.6609   -2.7531    3.3444 H         1 <0>        0.00000
     17 H3          9.9225   -0.0369    1.6086 H         1 <0>        0.00000
     18 H4          7.3653   -1.7190    2.1510 H         1 <0>        0.00000
     19 H5          7.4468    0.0425    2.1979 H         1 <0>        0.00000
     20 H6          7.9586   -1.6062   -0.1734 H         1 <0>        0.00000
     21 H7          5.7301   -1.6641    0.5044 H         1 <0>        0.00000
     22 H8          5.7389    0.1055    0.6023 H         1 <0>        0.00000
     23 H9          6.2653    0.1910   -1.8746 H         1 <0>        0.00000
     24 H10         6.2176   -1.5728   -1.9187 H         1 <0>        0.00000
     25 H11         3.8238   -1.5548   -1.2380 H         1 <0>        0.00000
     26 H12         3.8420    0.2100   -1.1590 H         1 <0>        0.00000
     27 H13         4.3810    0.2930   -3.6207 H         1 <0>        0.00000
     28 H14         4.3345   -1.4771   -3.6628 H         1 <0>        0.00000
     29 H15         2.0825   -1.3997   -2.9733 H         1 <0>        0.00000
     30 H16         2.6596   -1.3514   -5.3061 H         1 <0>        0.00000
     31 H17         2.6370    0.4102   -5.2159 H         1 <0>        0.00000
     32 H18         0.1631    0.3667   -4.6144 H         1 <0>        0.00000
     33 H19        -0.0925   -3.0862   -6.8526 H         1 <0>        0.00000
     34 H20        -1.6739   -2.1462   -6.5441 H         1 <0>        0.00000
@<TRIPOS>BOND
     1    1    2 2
     2    2    3 2
     3    3    4 1
     4    4    5 1
     5    5    6 1
     6    6    7 1
     7    7    8 1
     8    8    9 1
     9    9   10 1
    10   10   11 1
    11   11   12 1
    12   12   13 2
    13   13   14 2
    14    1   15 1
    15    1   16 1
    16    3   17 1
    17    4   18 1
    18    4   19 1
    19    5   20 1
    20    6   21 1
    21    6   22 1
    22    7   23 1
    23    7   24 1
    24    8   25 1
    25    8   26 1
    26    9   27 1
    27    9   28 1
    28   10   29 1
    29   11   30 1
    30   11   31 1
    31   12   32 1
    32   14   33 1
    33   14   34 1
@<TRIPOS>SUBSTRUCTURE
     1 <0>         1 GROUP 0 A     ****
@<TRIPOS>MOLECULE
MiniDrugBank_258
   30    31     1     0     0
SMALL
NO_CHARGES

@<TRIPOS>ATOM
      1 O1          2.6890    0.2856   -3.4577 O.3       1 <0>        0.00000
      2 C1          2.6269    0.2277   -2.1038 C.2       1 <0>        0.00000
      3 O2          3.0656    1.1074   -1.3735 O.2       1 <0>        0.00000
      4 C2          1.9314   -1.0126   -1.6031 C.3       1 <0>        0.00000
      5 C3          1.8851   -1.0363   -0.1124 C.ar      1 <0>        0.00000
      6 C4          0.8066   -0.4630    0.5610 C.ar      1 <0>        0.00000
      7 C5          0.7638   -0.4841    1.9551 C.ar      1 <0>        0.00000
      8 I1         -0.8801    0.3916    2.9072 I         1 <0>        0.00000
      9 C6          1.7997   -1.0786    2.6757 C.ar      1 <0>        0.00000
     10 O3          1.7570   -1.1015    4.0407 O.3       1 <0>        0.00000
     11 C7          2.3279   -0.0385    4.7156 C.ar      1 <0>        0.00000
     12 C8          2.9183    1.0043    4.0018 C.ar      1 <0>        0.00000
     13 C9          3.4942    2.0770    4.6824 C.ar      1 <0>        0.00000
     14 I2          4.3640    3.6105    3.5566 I         1 <0>        0.00000
     15 C10         3.4798    2.1069    6.0769 C.ar      1 <0>        0.00000
     16 O4          4.0440    3.1577    6.7429 O.3       1 <0>        0.00000
     17 C11         2.8894    1.0641    6.7907 C.ar      1 <0>        0.00000
     18 I3          2.8356    1.0520    8.8821 I         1 <0>        0.00000
     19 C12         2.3134   -0.0086    6.1101 C.ar      1 <0>        0.00000
     20 C13         2.8783   -1.6520    2.0022 C.ar      1 <0>        0.00000
     21 I4          4.4601   -2.5597    3.0272 I         1 <0>        0.00000
     22 C14         2.9210   -1.6309    0.6081 C.ar      1 <0>        0.00000
     23 H1          2.3018   -0.4828   -3.9288 H         1 <0>        0.00000
     24 H2          0.9295   -1.0789   -2.0439 H         1 <0>        0.00000
     25 H3          2.4739   -1.8822   -1.9951 H         1 <0>        0.00000
     26 H4          0.0072   -0.0026   -0.0154 H         1 <0>        0.00000
     27 H5          2.9199    0.9640    2.9146 H         1 <0>        0.00000
     28 H6          3.9531    3.0313    7.6991 H         1 <0>        0.00000
     29 H7          1.8482   -0.8306    6.6495 H         1 <0>        0.00000
     30 H8          3.7558   -2.0729    0.0686 H         1 <0>        0.00000
@<TRIPOS>BOND
     1    1    2 1
     2    2    3 2
     3    2    4 1
     4    4    5 1
     5    5    6 ar
     6    6    7 ar
     7    7    8 1
     8    7    9 ar
     9    9   10 1
    10   10   11 1
    11   11   12 ar
    12   12   13 ar
    13   13   14 1
    14   13   15 ar
    15   15   16 1
    16   15   17 ar
    17   17   18 1
    18   17   19 ar
    19   11   19 ar
    20    9   20 ar
    21   20   21 1
    22   20   22 ar
    23    5   22 ar
    24    1   23 1
    25    4   24 1
    26    4   25 1
    27    6   26 1
    28   12   27 1
    29   16   28 1
    30   19   29 1
    31   22   30 1
@<TRIPOS>SUBSTRUCTURE
     1 <0>         1 GROUP 0 A     ****
@<TRIPOS>MOLECULE
MiniDrugBank_259
   51    53     1     0     0
SMALL
NO_CHARGES

@<TRIPOS>ATOM
      1 N1         -1.5120    0.8543   -0.0508 N.pl3     1 <0>        0.00000
      2 C1         -0.5367   -0.2723   -0.1221 C.3       1 <0>        0.00000
      3 C2         -0.3797   -0.9060    1.2590 C.3       1 <0>        0.00000
      4 C3          0.0032    0.1152    2.3347 C.3       1 <0>        0.00000
      5 C4         -0.9432    1.3186    2.3039 C.3       1 <0>        0.00000
      6 C5         -1.0770    1.9146    0.9042 C.3       1 <0>        0.00000
      7 N2          1.3798    0.5326    2.2014 N.pl3     1 <0>        0.00000
      8 C6          2.1644    0.9259    3.2691 C.ar      1 <0>        0.00000
      9 N3          3.4300    1.2876    2.9847 N.ar      1 <0>        0.00000
     10 C7          4.1674    1.6644    4.0499 C.ar      1 <0>        0.00000
     11 C8          3.6889    1.6876    5.3441 C.ar      1 <0>        0.00000
     12 C9          2.3758    1.2940    5.5022 C.ar      1 <0>        0.00000
     13 N4          1.5816    0.9057    4.4830 N.ar      1 <0>        0.00000
     14 C10         4.5475    2.1046    6.4411 C.2       1 <0>        0.00000
     15 O1          4.3800    1.6387    7.5781 O.2       1 <0>        0.00000
     16 C11         5.6523    3.0947    6.2620 C.ar      1 <0>        0.00000
     17 C12         6.9634    2.7131    6.5464 C.ar      1 <0>        0.00000
     18 C13         8.0060    3.6255    6.3844 C.ar      1 <0>        0.00000
     19 C14         7.7374    4.9194    5.9379 C.ar      1 <0>        0.00000
     20 C15         6.4262    5.3009    5.6534 C.ar      1 <0>        0.00000
     21 C16         5.3837    4.3885    5.8154 C.ar      1 <0>        0.00000
     22 O2          4.1096    4.7810    5.5321 O.3       1 <0>        0.00000
     23 C17         3.3553    5.3513    6.5994 C.3       1 <0>        0.00000
     24 F1          7.2341    1.4725    6.9763 F         1 <0>        0.00000
     25 F2          9.2651    3.2594    6.6578 F         1 <0>        0.00000
     26 N5          1.8259    1.2965    6.8082 N.pl3     1 <0>        0.00000
     27 S1         -2.0847    1.4222   -1.5634 S.o2      1 <0>        0.00000
     28 C18        -0.5399    1.9152   -2.2823 C.3       1 <0>        0.00000
     29 O3         -2.8760    2.6117   -1.3417 O.2       1 <0>        0.00000
     30 O4         -2.5922    0.2983   -2.3180 O.2       1 <0>        0.00000
     31 H1         -0.9087   -1.0319   -0.8185 H         1 <0>        0.00000
     32 H2          0.4255    0.0944   -0.4974 H         1 <0>        0.00000
     33 H3         -1.3329   -1.3708    1.5430 H         1 <0>        0.00000
     34 H4          0.3643   -1.7101    1.2085 H         1 <0>        0.00000
     35 H5         -0.0938   -0.3737    3.3266 H         1 <0>        0.00000
     36 H6         -1.9343    0.9943    2.6470 H         1 <0>        0.00000
     37 H7         -0.6027    2.0944    3.0000 H         1 <0>        0.00000
     38 H8         -0.1293    2.3504    0.5684 H         1 <0>        0.00000
     39 H9         -1.8295    2.7104    0.9308 H         1 <0>        0.00000
     40 H10         1.7841    0.5332    1.2748 H         1 <0>        0.00000
     41 H11         5.1872    1.9550    3.8163 H         1 <0>        0.00000
     42 H12         8.5494    5.6294    5.8120 H         1 <0>        0.00000
     43 H13         6.2242    6.3106    5.3059 H         1 <0>        0.00000
     44 H14         2.3646    5.6162    6.2320 H         1 <0>        0.00000
     45 H15         3.8753    6.2345    6.9693 H         1 <0>        0.00000
     46 H16         3.2693    4.6122    7.3950 H         1 <0>        0.00000
     47 H17         0.8651    1.0592    6.9263 H         1 <0>        0.00000
     48 H18         2.3851    1.6257    7.5649 H         1 <0>        0.00000
     49 H19        -0.7488    2.3078   -3.2734 H         1 <0>        0.00000
     50 H20        -0.1067    2.6769   -1.6404 H         1 <0>        0.00000
     51 H21         0.0948    1.0352   -2.3331 H         1 <0>        0.00000
@<TRIPOS>BOND
     1    1    2 1
     2    1    6 1
     3    1   27 1
     4    2    3 1
     5    3    4 1
     6    4    5 1
     7    4    7 1
     8    5    6 1
     9    7    8 1
    10    8    9 ar
    11    8   13 ar
    12    9   10 ar
    13   10   11 ar
    14   11   12 ar
    15   11   14 1
    16   12   13 ar
    17   12   26 1
    18   14   15 2
    19   14   16 1
    20   16   17 ar
    21   16   21 ar
    22   17   18 ar
    23   17   24 1
    24   18   19 ar
    25   18   25 1
    26   19   20 ar
    27   20   21 ar
    28   21   22 1
    29   22   23 1
    30   27   28 1
    31   27   29 2
    32   27   30 2
    33    2   31 1
    34    2   32 1
    35    3   33 1
    36    3   34 1
    37    4   35 1
    38    5   36 1
    39    5   37 1
    40    6   38 1
    41    6   39 1
    42    7   40 1
    43   10   41 1
    44   19   42 1
    45   20   43 1
    46   23   44 1
    47   23   45 1
    48   23   46 1
    49   26   47 1
    50   26   48 1
    51   28   49 1
    52   28   50 1
    53   28   51 1
@<TRIPOS>SUBSTRUCTURE
     1 <0>         1 GROUP 0 A     ****
@<TRIPOS>MOLECULE
MiniDrugBank_260
   24    24     1     0     0
SMALL
NO_CHARGES

@<TRIPOS>ATOM
      1 N1          0.2132   -2.7865    0.6696 N.3       1 <0>        0.00000
      2 C1          1.1716   -1.7099    0.6517 C.3       1 <0>        0.00000
      3 C2          0.7986   -0.6463   -0.3892 C.3       1 <0>        0.00000
      4 C3          1.9750    0.1982   -0.8161 C.ar      1 <0>        0.00000
      5 C4          2.7591   -0.1973   -1.8998 C.ar      1 <0>        0.00000
      6 C5          3.8471    0.5813   -2.2944 C.ar      1 <0>        0.00000
      7 C6          4.1511    1.7554   -1.6053 C.ar      1 <0>        0.00000
      8 O1          5.2231    2.4871   -2.0229 O.3       1 <0>        0.00000
      9 C7          3.3670    2.1509   -0.5216 C.ar      1 <0>        0.00000
     10 I1          3.7794    3.9011    0.5436 I         1 <0>        0.00000
     11 C8          2.2790    1.3723   -0.1270 C.ar      1 <0>        0.00000
     12 C9          1.2990   -1.0697    2.0262 C.2       1 <0>        0.00000
     13 O2          2.5184   -0.5469    2.2994 O.3       1 <0>        0.00000
     14 O3          0.3757   -1.0315    2.8329 O.2       1 <0>        0.00000
     15 H1          0.2996   -3.5337   -0.0015 H         1 <0>        0.00000
     16 H2         -0.6349   -2.6814    1.2044 H         1 <0>        0.00000
     17 H3          2.1416   -2.1685    0.4273 H         1 <0>        0.00000
     18 H4          0.3761   -1.1193   -1.2858 H         1 <0>        0.00000
     19 H5          0.0000    0.0000   -0.0000 H         1 <0>        0.00000
     20 H6          2.5307   -1.1106   -2.4426 H         1 <0>        0.00000
     21 H7          4.4538    0.2666   -3.1394 H         1 <0>        0.00000
     22 H8          5.3277    3.2740   -1.4659 H         1 <0>        0.00000
     23 H9          1.6587    1.6678    0.7165 H         1 <0>        0.00000
     24 H10         3.1762   -0.6369    1.5781 H         1 <0>        0.00000
@<TRIPOS>BOND
     1    1    2 1
     2    2    3 1
     3    3    4 1
     4    4    5 ar
     5    5    6 ar
     6    6    7 ar
     7    7    8 1
     8    7    9 ar
     9    9   10 1
    10    9   11 ar
    11    4   11 ar
    12    2   12 1
    13   12   13 1
    14   12   14 2
    15    1   15 1
    16    1   16 1
    17    2   17 1
    18    3   18 1
    19    3   19 1
    20    5   20 1
    21    6   21 1
    22    8   22 1
    23   11   23 1
    24   13   24 1
@<TRIPOS>SUBSTRUCTURE
     1 <0>         1 GROUP 0 A     ****
@<TRIPOS>MOLECULE
MiniDrugBank_261
   12    11     1     0     0
SMALL
NO_CHARGES

@<TRIPOS>ATOM
      1 N1         -0.6453   -1.5544    0.1790 N.3       1 <0>        0.00000
      2 C1         -0.3373   -0.1629   -0.1473 C.3       1 <0>        0.00000
      3 C2          1.0474   -0.0437   -0.6225 C.1       1 <0>        0.00000
      4 C3          2.1777    0.0570   -1.0153 C.1       1 <0>        0.00000
      5 C4         -1.3092    0.2949   -1.2170 C.2       1 <0>        0.00000
      6 O1         -2.6012    0.2140   -0.7977 O.3       1 <0>        0.00000
      7 O2         -1.0040    0.6943   -2.3335 O.2       1 <0>        0.00000
      8 H1         -0.3836   -1.9177    1.0821 H         1 <0>        0.00000
      9 H2         -0.9238   -2.1827   -0.5585 H         1 <0>        0.00000
     10 H3         -0.5013    0.4444    0.7497 H         1 <0>        0.00000
     11 H4          3.1802    0.1462   -1.3632 H         1 <0>        0.00000
     12 H5         -2.7233   -0.1206    0.1165 H         1 <0>        0.00000
@<TRIPOS>BOND
     1    1    2 1
     2    2    3 1
     3    3    4 3
     4    2    5 1
     5    5    6 1
     6    5    7 2
     7    1    8 1
     8    1    9 1
     9    2   10 1
    10    4   11 1
    11    6   12 1
@<TRIPOS>SUBSTRUCTURE
     1 <0>         1 GROUP 0 A     ****
@<TRIPOS>MOLECULE
MiniDrugBank_262
   42    45     1     0     0
SMALL
NO_CHARGES

@<TRIPOS>ATOM
      1 N1          1.5349    1.9809   -0.3103 N.am      1 <0>        0.00000
      2 C1          2.3052    1.3240    0.6330 C.2       1 <0>        0.00000
      3 C2          1.6772   -0.0475    0.7547 C.2       1 <0>        0.00000
      4 C3         -0.3679   -1.0800   -0.4525 C.ar      1 <0>        0.00000
      5 C4         -1.3654   -0.8055   -1.4052 C.ar      1 <0>        0.00000
      6 C5         -1.3968    0.4758   -2.0297 C.ar      1 <0>        0.00000
      7 C6         -0.4530    1.4630   -1.7109 C.ar      1 <0>        0.00000
      8 C7          0.5059    1.1554   -0.7747 C.ar      1 <0>        0.00000
      9 C8          0.5535   -0.0893   -0.1538 C.ar      1 <0>        0.00000
     10 O1          3.2738    1.6767    1.2688 O.2       1 <0>        0.00000
     11 N2          2.1286   -0.9492    1.5504 N.2       1 <0>        0.00000
     12 S1         -0.5664   -2.6815    0.1323 S.3       1 <0>        0.00000
     13 C9         -1.9202   -2.8794   -0.8953 C.ar      1 <0>        0.00000
     14 N3         -2.2454   -1.8512   -1.6444 N.ar      1 <0>        0.00000
     15 N4          3.2070   -0.5538    2.2582 N.pl3     1 <0>        0.00000
     16 C10         4.1814   -1.4778    2.6669 C.ar      1 <0>        0.00000
     17 C11         4.0429   -2.8272    2.3420 C.ar      1 <0>        0.00000
     18 C12         5.0112   -3.7454    2.7482 C.ar      1 <0>        0.00000
     19 C13         6.1181   -3.3141    3.4794 C.ar      1 <0>        0.00000
     20 C14         6.2566   -1.9647    3.8043 C.ar      1 <0>        0.00000
     21 C15         5.2883   -1.0466    3.3980 C.ar      1 <0>        0.00000
     22 C16         7.1535   -4.2957    3.9134 C.3       1 <0>        0.00000
     23 S2          8.3733   -4.3953    2.6433 S.o2      1 <0>        0.00000
     24 O2          7.8703   -5.2612    1.5887 O.2       1 <0>        0.00000
     25 O3          8.8074   -3.0421    2.3328 O.2       1 <0>        0.00000
     26 N5          9.6439   -5.1854    3.4710 N.pl3     1 <0>        0.00000
     27 C17         9.4048   -6.5260    4.0349 C.3       1 <0>        0.00000
     28 H1          1.6948    2.9315   -0.6224 H         1 <0>        0.00000
     29 H2         -2.1666    0.6920   -2.7666 H         1 <0>        0.00000
     30 H3         -0.4889    2.4333   -2.1937 H         1 <0>        0.00000
     31 H4         -2.4755   -3.8068   -0.9235 H         1 <0>        0.00000
     32 H5          3.3339    0.4201    2.5107 H         1 <0>        0.00000
     33 H6          3.1843   -3.1740    1.7727 H         1 <0>        0.00000
     34 H7          4.8949   -4.7947    2.4906 H         1 <0>        0.00000
     35 H8          7.1158   -1.6196    4.3733 H         1 <0>        0.00000
     36 H9          5.4061    0.0027    3.6566 H         1 <0>        0.00000
     37 H10         6.7391   -5.2993    4.0621 H         1 <0>        0.00000
     38 H11         7.6549   -3.9898    4.8388 H         1 <0>        0.00000
     39 H12        10.2605   -4.5953    4.0446 H         1 <0>        0.00000
     40 H13        10.3144   -6.8590    4.5149 H         1 <0>        0.00000
     41 H14         9.1350   -7.1927    3.2275 H         1 <0>        0.00000
     42 H15         8.5997   -6.4555    4.7530 H         1 <0>        0.00000
@<TRIPOS>BOND
     1    1    2 am
     2    1    8 1
     3    2    3 1
     4    2   10 2
     5    3    9 1
     6    3   11 2
     7    4    5 ar
     8    4    9 ar
     9    4   12 1
    10    5    6 ar
    11    5   14 1
    12    6    7 ar
    13    7    8 ar
    14    8    9 ar
    15   11   15 1
    16   12   13 1
    17   13   14 2
    18   15   16 1
    19   16   17 ar
    20   16   21 ar
    21   17   18 ar
    22   18   19 ar
    23   19   20 ar
    24   19   22 1
    25   20   21 ar
    26   22   23 1
    27   23   24 2
    28   23   25 2
    29   23   26 1
    30   26   27 1
    31    1   28 1
    32    6   29 1
    33    7   30 1
    34   13   31 1
    35   15   32 1
    36   17   33 1
    37   18   34 1
    38   20   35 1
    39   21   36 1
    40   22   37 1
    41   22   38 1
    42   26   39 1
    43   27   40 1
    44   27   41 1
    45   27   42 1
@<TRIPOS>SUBSTRUCTURE
     1 <0>         1 GROUP 0 A     ****
@<TRIPOS>MOLECULE
MiniDrugBank_263
   34    37     1     0     0
SMALL
NO_CHARGES

@<TRIPOS>ATOM
      1 N1          4.2875   -6.7658    1.8253 N.pl3     1 <0>        0.00000
      2 C1          3.1784   -5.9264    2.0263 C.ar      1 <0>        0.00000
      3 N2          2.2206   -6.2658    2.9223 N.ar      1 <0>        0.00000
      4 C2          1.1755   -5.4167    3.0729 C.ar      1 <0>        0.00000
      5 N3          0.9381   -4.2454    2.4430 N.ar      1 <0>        0.00000
      6 C3          1.9227   -3.9725    1.5738 C.ar      1 <0>        0.00000
      7 C4          3.0471   -4.7393    1.3126 C.ar      1 <0>        0.00000
      8 N4          3.8332   -4.1402    0.3608 N.ar      1 <0>        0.00000
      9 C5          3.1983   -3.0296    0.0488 C.ar      1 <0>        0.00000
     10 N5          2.0354   -2.8833    0.7576 N.pl3     1 <0>        0.00000
     11 C6          1.0693   -1.7279    0.6505 C.3       1 <0>        0.00000
     12 O1          1.7616   -0.5118    0.2863 O.3       1 <0>        0.00000
     13 C7          1.1073    0.0554   -0.8701 C.3       1 <0>        0.00000
     14 C8          1.2134    1.5706   -0.8304 C.3       1 <0>        0.00000
     15 O2          0.4091    2.1209    0.2034 O.3       1 <0>        0.00000
     16 P1         -1.1615    1.7243    0.2574 P.3       1 <0>        0.00000
     17 O3         -1.7053    2.1585   -1.2086 O.3       1 <0>        0.00000
     18 S1         -2.1581    2.4306    1.7615 S.2       1 <0>        0.00000
     19 O4         -1.1052    0.1094    0.1580 O.3       1 <0>        0.00000
     20 C9         -0.3045   -0.5138   -0.8425 C.3       1 <0>        0.00000
     21 C10        -0.0080   -1.9387   -0.4146 C.3       1 <0>        0.00000
     22 O5         -1.1537   -2.5942    0.0915 O.3       1 <0>        0.00000
     23 H1          4.9798   -6.5387    1.1236 H         1 <0>        0.00000
     24 H2          4.3541   -7.6497    2.3124 H         1 <0>        0.00000
     25 H3          0.4276   -5.7199    3.7980 H         1 <0>        0.00000
     26 H4          3.5288   -2.2982   -0.6759 H         1 <0>        0.00000
     27 H5          0.6447   -1.6159    1.6715 H         1 <0>        0.00000
     28 H6          1.6519   -0.3187   -1.7463 H         1 <0>        0.00000
     29 H7          2.2461    1.8766   -0.6358 H         1 <0>        0.00000
     30 H8          0.9001    2.0076   -1.7842 H         1 <0>        0.00000
     31 H9         -1.3068    1.7414   -2.0020 H         1 <0>        0.00000
     32 H10        -0.8272   -0.4505   -1.8010 H         1 <0>        0.00000
     33 H11         0.3771   -2.5123   -1.2672 H         1 <0>        0.00000
     34 H12        -0.8835   -3.4950    0.3421 H         1 <0>        0.00000
@<TRIPOS>BOND
     1    1    2 1
     2    2    3 ar
     3    3    4 ar
     4    4    5 ar
     5    5    6 ar
     6    6    7 ar
     7    2    7 ar
     8    7    8 1
     9    8    9 2
    10    9   10 1
    11    6   10 1
    12   10   11 1
    13   11   12 1
    14   12   13 1
    15   13   14 1
    16   14   15 1
    17   15   16 1
    18   16   17 1
    19   16   18 2
    20   16   19 1
    21   19   20 1
    22   13   20 1
    23   20   21 1
    24   11   21 1
    25   21   22 1
    26    1   23 1
    27    1   24 1
    28    4   25 1
    29    9   26 1
    30   11   27 1
    31   13   28 1
    32   14   29 1
    33   14   30 1
    34   17   31 1
    35   20   32 1
    36   21   33 1
    37   22   34 1
@<TRIPOS>SUBSTRUCTURE
     1 <0>         1 GROUP 0 A     ****
@<TRIPOS>MOLECULE
MiniDrugBank_264
   39    41     1     0     0
SMALL
NO_CHARGES

@<TRIPOS>ATOM
      1 F1          1.9263   -1.0139   -1.4510 F         1 <0>        0.00000
      2 C1          1.8851   -1.0363   -0.1124 C.ar      1 <0>        0.00000
      3 C2          0.8066   -0.4630    0.5610 C.ar      1 <0>        0.00000
      4 F2         -0.1824    0.1062   -0.1428 F         1 <0>        0.00000
      5 C3          2.9210   -1.6309    0.6081 C.ar      1 <0>        0.00000
      6 C4          2.8783   -1.6520    2.0022 C.ar      1 <0>        0.00000
      7 C5          1.7997   -1.0786    2.6757 C.ar      1 <0>        0.00000
      8 C6          1.7844   -1.1164    4.1211 C.ar      1 <0>        0.00000
      9 N1          0.7769   -1.1581    4.9614 N.ar      1 <0>        0.00000
     10 N2          1.3382   -1.1836    6.2245 N.ar      1 <0>        0.00000
     11 C7          2.6375   -1.1554    6.0411 C.ar      1 <0>        0.00000
     12 N3          3.6415   -1.1610    6.9447 N.pl3     1 <0>        0.00000
     13 C8          3.4601   -1.2023    8.3963 C.3       1 <0>        0.00000
     14 C9          4.7882   -1.1973    9.1151 C.3       1 <0>        0.00000
     15 N4          4.6363   -1.2375   10.5443 N.3       1 <0>        0.00000
     16 O1          3.0016   -1.1118    4.7303 O.3       1 <0>        0.00000
     17 C10         0.7638   -0.4841    1.9551 C.ar      1 <0>        0.00000
     18 N5         -0.3410    0.1036    2.6131 N.pl3     1 <0>        0.00000
     19 C11        -1.6887    0.2663    2.2470 C.ar      1 <0>        0.00000
     20 C12        -2.2983   -0.6658    1.4073 C.ar      1 <0>        0.00000
     21 C13        -3.6352   -0.5066    1.0425 C.ar      1 <0>        0.00000
     22 C14        -4.3625    0.5847    1.5175 C.ar      1 <0>        0.00000
     23 I1         -6.3538    0.8216    0.9745 I         1 <0>        0.00000
     24 C15        -3.7530    1.5168    2.3573 C.ar      1 <0>        0.00000
     25 C16        -2.4161    1.3577    2.7220 C.ar      1 <0>        0.00000
     26 F3         -1.8401    2.2595    3.5297 F         1 <0>        0.00000
     27 H1          3.7617   -2.0753    0.0834 H         1 <0>        0.00000
     28 H2          3.6945   -2.1191    2.5478 H         1 <0>        0.00000
     29 H3          4.6212   -1.1336    6.6248 H         1 <0>        0.00000
     30 H4          2.8468   -0.3406    8.6486 H         1 <0>        0.00000
     31 H5          2.9071   -2.1162    8.5995 H         1 <0>        0.00000
     32 H6          5.3600   -2.0850    8.8276 H         1 <0>        0.00000
     33 H7          5.3805   -0.3092    8.8720 H         1 <0>        0.00000
     34 H8          4.4979   -2.1260   10.9991 H         1 <0>        0.00000
     35 H9          4.4664   -0.3794   11.0448 H         1 <0>        0.00000
     36 H10        -0.1122    0.4807    3.5266 H         1 <0>        0.00000
     37 H11        -1.7407   -1.5199    1.0314 H         1 <0>        0.00000
     38 H12        -4.0908   -1.2448    0.3872 H         1 <0>        0.00000
     39 H13        -4.3011    2.3744    2.7389 H         1 <0>        0.00000
@<TRIPOS>BOND
     1    1    2 1
     2    2    3 ar
     3    2    5 ar
     4    3    4 1
     5    3   17 ar
     6    5    6 ar
     7    6    7 ar
     8    7    8 1
     9    7   17 ar
    10    8    9 2
    11    8   16 1
    12    9   10 1
    13   10   11 2
    14   11   12 1
    15   11   16 1
    16   12   13 1
    17   13   14 1
    18   14   15 1
    19   17   18 1
    20   18   19 1
    21   19   20 ar
    22   19   25 ar
    23   20   21 ar
    24   21   22 ar
    25   22   23 1
    26   22   24 ar
    27   24   25 ar
    28   25   26 1
    29    5   27 1
    30    6   28 1
    31   12   29 1
    32   13   30 1
    33   13   31 1
    34   14   32 1
    35   14   33 1
    36   15   34 1
    37   15   35 1
    38   18   36 1
    39   20   37 1
    40   21   38 1
    41   24   39 1
@<TRIPOS>SUBSTRUCTURE
     1 <0>         1 GROUP 0 A     ****
@<TRIPOS>MOLECULE
744
   28    29     1     0     0
SMALL
NO_CHARGES

@<TRIPOS>ATOM
      1 S1          3.8597    1.1874    0.0000 S.3       1 <0>        0.00000
      2 O1          5.1662   -0.9055    0.0000 O.3       1 <0>        0.00000
      3 O2          6.8162    0.5235    0.0000 O.2       1 <0>        0.00000
      4 N1          5.5787   -0.1910    0.0000 N.am      1 <0>        0.00000
      5 N2          6.8162   -0.9055    0.0000 N.am      1 <0>        0.00000
      6 C1          5.1662    0.5235    0.0000 C.3       1 <0>        0.00000
      7 C2          4.3412    0.5235    0.0000 C.ar      1 <0>        0.00000
      8 C3          3.0791    0.1110    0.0000 C.ar      1 <0>        0.00000
      9 C4          3.8597   -0.1404    0.0000 C.ar      1 <0>        0.00000
     10 C5          3.0791    0.9360    0.0000 C.ar      1 <0>        0.00000
     11 C6          5.5787    1.2379    0.0000 C.3       1 <0>        0.00000
     12 C7          2.3645   -0.3015    0.0000 C.ar      1 <0>        0.00000
     13 C8          2.3645    1.3485    0.0000 C.ar      1 <0>        0.00000
     14 C9          1.6500    0.1110    0.0000 C.ar      1 <0>        0.00000
     15 C10         1.6500    0.9360    0.0000 C.ar      1 <0>        0.00000
     16 C11         6.4037   -0.1910    0.0000 C.2       1 <0>        0.00000
     17 H1          5.1662   -0.9055    0.0000 H         1 <0>        0.00000
     18 H2          6.8162   -0.9055    0.0000 H         1 <0>        0.00000
     19 H3          6.8162   -0.9055    0.0000 H         1 <0>        0.00000
     20 H4          5.1662    0.5235    0.0000 H         1 <0>        0.00000
     21 H5          3.8597   -0.1404    0.0000 H         1 <0>        0.00000
     22 H6          5.5787    1.2379    0.0000 H         1 <0>        0.00000
     23 H7          5.5787    1.2379    0.0000 H         1 <0>        0.00000
     24 H8          5.5787    1.2379    0.0000 H         1 <0>        0.00000
     25 H9          2.3645   -0.3015    0.0000 H         1 <0>        0.00000
     26 H10         2.3645    1.3485    0.0000 H         1 <0>        0.00000
     27 H11         1.6500    0.1110    0.0000 H         1 <0>        0.00000
     28 H12         1.6500    0.9360    0.0000 H         1 <0>        0.00000
@<TRIPOS>BOND
     1    1    7 1
     2    1   10 1
     3    2    4 1
     4    3   16 2
     5    4    6 1
     6    4   16 am
     7    5   16 am
     8    6    7 1
     9    6   11 1
    10    7    9 2
    11    8    9 1
    12    8   10 ar
    13    8   12 ar
    14   10   13 ar
    15   12   14 ar
    16   13   15 ar
    17   14   15 ar
    18    2   17 1
    19    5   18 1
    20    5   19 1
    21    6   20 1
    22    9   21 1
    23   11   22 1
    24   11   23 1
    25   11   24 1
    26   12   25 1
    27   13   26 1
    28   14   27 1
    29   15   28 1
@<TRIPOS>SUBSTRUCTURE
     1 <0>         1 GROUP 0 A     ****
@<TRIPOS>MOLECULE
MiniDrugBank_266
   86    89     1     0     0
SMALL
NO_CHARGES

@<TRIPOS>ATOM
      1 C1         -2.1481   -6.2334    6.8988 C.3       1 <0>        0.00000
      2 C2         -1.5975   -7.0880    5.8058 C.2       1 <0>        0.00000
      3 O1         -0.5435   -7.6882    5.9809 O.2       1 <0>        0.00000
      4 N1         -2.3730   -7.1079    4.6622 N.am      1 <0>        0.00000
      5 C3         -2.0251   -7.8666    3.4872 C.3       1 <0>        0.00000
      6 C4         -2.6476   -9.2675    3.4969 C.3       1 <0>        0.00000
      7 C5         -4.1560   -9.2355    3.5361 C.ar      1 <0>        0.00000
      8 C6         -4.8218   -9.2250    4.7617 C.ar      1 <0>        0.00000
      9 C7         -6.2159   -9.1943    4.7978 C.ar      1 <0>        0.00000
     10 C8         -6.9441   -9.1740    3.6083 C.ar      1 <0>        0.00000
     11 C9         -6.2783   -9.1845    2.3826 C.ar      1 <0>        0.00000
     12 C10        -4.8842   -9.2152    2.3465 C.ar      1 <0>        0.00000
     13 P1         -7.1783   -9.1591    0.8617 P.3       1 <0>        0.00000
     14 O2         -6.0465   -9.1801   -0.2984 O.3       1 <0>        0.00000
     15 O3         -7.8159  -10.6430    0.7249 O.3       1 <0>        0.00000
     16 O4         -8.1915   -8.0691    0.6677 O.2       1 <0>        0.00000
     17 P2         -8.7104   -9.1350    3.6801 P.3       1 <0>        0.00000
     18 O5         -9.0674   -9.1324    5.2610 O.3       1 <0>        0.00000
     19 O6         -9.1153   -7.6258    3.2495 O.3       1 <0>        0.00000
     20 O7         -9.4633  -10.1823    2.9138 O.2       1 <0>        0.00000
     21 C11        -2.5138   -7.0768    2.2783 C.2       1 <0>        0.00000
     22 O8         -3.5458   -6.4091    2.2879 O.2       1 <0>        0.00000
     23 N2         -1.6347   -7.1679    1.2081 N.am      1 <0>        0.00000
     24 C12        -1.8342   -6.4749   -0.0435 C.3       1 <0>        0.00000
     25 C13        -2.7991   -7.2139   -0.9825 C.3       1 <0>        0.00000
     26 C14        -2.4703   -8.6777   -1.2737 C.3       1 <0>        0.00000
     27 C15        -1.1678   -8.9006   -2.0351 C.3       1 <0>        0.00000
     28 C16         0.0791   -8.5222   -1.2408 C.3       1 <0>        0.00000
     29 C17         0.3650   -7.0409   -1.2493 C.ar      1 <0>        0.00000
     30 C18         1.5721   -6.5970   -1.8217 C.ar      1 <0>        0.00000
     31 C19         1.9016   -5.2431   -1.8513 C.ar      1 <0>        0.00000
     32 O9          3.0796   -4.8580   -2.4172 O.3       1 <0>        0.00000
     33 C20         4.1627   -5.7836   -2.3524 C.3       1 <0>        0.00000
     34 C21         5.4750   -5.0027   -2.3134 C.3       1 <0>        0.00000
     35 C22         5.5221   -4.0830   -1.0857 C.3       1 <0>        0.00000
     36 C23         6.8478   -3.3306   -0.9956 C.3       1 <0>        0.00000
     37 C24         8.0386   -4.2838   -1.0173 C.3       1 <0>        0.00000
     38 C25         7.9990   -5.2034   -2.2338 C.3       1 <0>        0.00000
     39 C26         6.6752   -5.9590   -2.3261 C.3       1 <0>        0.00000
     40 C27         1.0311   -4.3098   -1.3052 C.ar      1 <0>        0.00000
     41 C28        -0.1669   -4.7325   -0.7310 C.ar      1 <0>        0.00000
     42 C29        -0.5203   -6.0959   -0.6949 C.ar      1 <0>        0.00000
     43 C30         1.3504   -2.8891   -1.3194 C.2       1 <0>        0.00000
     44 N3          2.0528   -2.3743   -0.2348 N.am      1 <0>        0.00000
     45 O10         0.9947   -2.1560   -2.2575 O.2       1 <0>        0.00000
     46 H1         -1.7877   -5.1937    6.8416 H         1 <0>        0.00000
     47 H2         -3.2472   -6.1628    6.8641 H         1 <0>        0.00000
     48 H3         -1.9115   -6.5662    7.9220 H         1 <0>        0.00000
     49 H4         -3.2291   -6.5618    4.6491 H         1 <0>        0.00000
     50 H5         -0.9302   -7.9166    3.4587 H         1 <0>        0.00000
     51 H6         -2.2681   -9.8466    4.3497 H         1 <0>        0.00000
     52 H7         -2.3387   -9.8306    2.6063 H         1 <0>        0.00000
     53 H8         -4.2631   -9.2403    5.6936 H         1 <0>        0.00000
     54 H9         -6.7298   -9.1863    5.7548 H         1 <0>        0.00000
     55 H10        -4.3686   -9.2230    1.3896 H         1 <0>        0.00000
     56 H11        -6.3318   -9.3135   -1.2273 H         1 <0>        0.00000
     57 H12        -8.2415  -10.8923   -0.1228 H         1 <0>        0.00000
     58 H13        -9.9967   -8.9700    5.5296 H         1 <0>        0.00000
     59 H14       -10.0484   -7.3438    3.3583 H         1 <0>        0.00000
     60 H15        -0.8094   -7.7512    1.3102 H         1 <0>        0.00000
     61 H16        -2.3493   -5.5493    0.2454 H         1 <0>        0.00000
     62 H17        -3.7973   -7.1967   -0.5242 H         1 <0>        0.00000
     63 H18        -2.8874   -6.6658   -1.9295 H         1 <0>        0.00000
     64 H19        -2.4590   -9.2557   -0.3419 H         1 <0>        0.00000
     65 H20        -3.2889   -9.0931   -1.8753 H         1 <0>        0.00000
     66 H21        -1.1068   -9.9707   -2.2716 H         1 <0>        0.00000
     67 H22        -1.1957   -8.3698   -2.9948 H         1 <0>        0.00000
     68 H23         0.0195   -8.8829   -0.2073 H         1 <0>        0.00000
     69 H24         0.9295   -9.0553   -1.6859 H         1 <0>        0.00000
     70 H25         2.2663   -7.3165   -2.2519 H         1 <0>        0.00000
     71 H26         4.0457   -6.3906   -1.4523 H         1 <0>        0.00000
     72 H27         4.1205   -6.4279   -3.2331 H         1 <0>        0.00000
     73 H28         5.5279   -4.3747   -3.2144 H         1 <0>        0.00000
     74 H29         4.7000   -3.3614   -1.1292 H         1 <0>        0.00000
     75 H30         5.3825   -4.6745   -0.1738 H         1 <0>        0.00000
     76 H31         6.9264   -2.6285   -1.8348 H         1 <0>        0.00000
     77 H32         6.8713   -2.7334   -0.0769 H         1 <0>        0.00000
     78 H33         8.9713   -3.7085   -1.0202 H         1 <0>        0.00000
     79 H34         8.0376   -4.8892   -0.1025 H         1 <0>        0.00000
     80 H35         8.1447   -4.6104   -3.1451 H         1 <0>        0.00000
     81 H36         8.8286   -5.9178   -2.1821 H         1 <0>        0.00000
     82 H37         6.6648   -6.5576   -3.2427 H         1 <0>        0.00000
     83 H38         6.6015   -6.6578   -1.4852 H         1 <0>        0.00000
     84 H39        -0.8389   -3.9903   -0.3030 H         1 <0>        0.00000
     85 H40         2.3294   -2.9425    0.5585 H         1 <0>        0.00000
     86 H41         2.2906   -1.3892   -0.1785 H         1 <0>        0.00000
@<TRIPOS>BOND
     1    1    2 1
     2    2    3 2
     3    2    4 am
     4    4    5 1
     5    5    6 1
     6    6    7 1
     7    7    8 ar
     8    8    9 ar
     9    9   10 ar
    10   10   11 ar
    11   11   12 ar
    12    7   12 ar
    13   11   13 1
    14   13   14 1
    15   13   15 1
    16   13   16 2
    17   10   17 1
    18   17   18 1
    19   17   19 1
    20   17   20 2
    21    5   21 1
    22   21   22 2
    23   21   23 am
    24   23   24 1
    25   24   25 1
    26   25   26 1
    27   26   27 1
    28   27   28 1
    29   28   29 1
    30   29   30 ar
    31   30   31 ar
    32   31   32 1
    33   32   33 1
    34   33   34 1
    35   34   35 1
    36   35   36 1
    37   36   37 1
    38   37   38 1
    39   38   39 1
    40   34   39 1
    41   31   40 ar
    42   40   41 ar
    43   41   42 ar
    44   24   42 1
    45   29   42 ar
    46   40   43 1
    47   43   44 am
    48   43   45 2
    49    1   46 1
    50    1   47 1
    51    1   48 1
    52    4   49 1
    53    5   50 1
    54    6   51 1
    55    6   52 1
    56    8   53 1
    57    9   54 1
    58   12   55 1
    59   14   56 1
    60   15   57 1
    61   18   58 1
    62   19   59 1
    63   23   60 1
    64   24   61 1
    65   25   62 1
    66   25   63 1
    67   26   64 1
    68   26   65 1
    69   27   66 1
    70   27   67 1
    71   28   68 1
    72   28   69 1
    73   30   70 1
    74   33   71 1
    75   33   72 1
    76   34   73 1
    77   35   74 1
    78   35   75 1
    79   36   76 1
    80   36   77 1
    81   37   78 1
    82   37   79 1
    83   38   80 1
    84   38   81 1
    85   39   82 1
    86   39   83 1
    87   41   84 1
    88   44   85 1
    89   44   86 1
@<TRIPOS>SUBSTRUCTURE
     1 <0>         1 GROUP 0 A     ****
@<TRIPOS>MOLECULE
MiniDrugBank_267
   10     9     1     0     0
SMALL
NO_CHARGES

@<TRIPOS>ATOM
      1 P1          0.0637   -0.3161   -0.5217 P.3       1 <0>        0.00000
      2 O1          1.5832    0.2449   -0.4671 O.3       1 <0>        0.00000
      3 O2          0.2479   -1.8258    0.0383 O.3       1 <0>        0.00000
      4 O3         -0.5433   -0.2598   -1.8954 O.2       1 <0>        0.00000
      5 O4         -0.4559    0.4866    1.9939 O.3       1 <0>        0.00000
      6 O5         -1.8118    1.2451    0.3289 O.2       1 <0>        0.00000
      7 C1         -0.8582    0.5781    0.7027 C.2       1 <0>        0.00000
      8 H1          2.2689   -0.1935   -1.0147 H         1 <0>        0.00000
      9 H2          0.8136   -2.4504   -0.4638 H         1 <0>        0.00000
     10 H3          0.3271   -0.0959    2.0932 H         1 <0>        0.00000
@<TRIPOS>BOND
     1    1    2 1
     2    1    3 1
     3    1    4 2
     4    1    7 1
     5    5    7 1
     6    6    7 2
     7    2    8 1
     8    3    9 1
     9    5   10 1
@<TRIPOS>SUBSTRUCTURE
     1 <0>         1 GROUP 0 A     ****
@<TRIPOS>MOLECULE
MiniDrugBank_268
   30    29     1     0     0
SMALL
NO_CHARGES

@<TRIPOS>ATOM
      1 O1         -0.7021   -1.5074   -3.4311 O.3       1 <0>        0.00000
      2 C1          0.2872   -0.7332   -2.7683 C.3       1 <0>        0.00000
      3 C2         -0.3172    0.0386   -1.5954 C.3       1 <0>        0.00000
      4 C3         -0.9523   -0.8709   -0.5307 C.3       1 <0>        0.00000
      5 O2          0.0539   -1.7447   -0.0090 O.3       1 <0>        0.00000
      6 C4         -1.5935   -0.1196    0.6536 C.3       1 <0>        0.00000
      7 O3         -2.1477   -1.0705    1.5722 O.3       1 <0>        0.00000
      8 C5         -2.6893    0.8945    0.2771 C.3       1 <0>        0.00000
      9 O4         -3.1779    1.5007    1.4784 O.3       1 <0>        0.00000
     10 C6         -3.8685    0.2638   -0.4035 C.2       1 <0>        0.00000
     11 C7         -4.2793    0.5846   -1.6384 C.2       1 <0>        0.00000
     12 P1         -5.6551   -0.1915   -2.3808 P.3       1 <0>        0.00000
     13 O5         -5.0300   -1.4766   -3.1563 O.3       1 <0>        0.00000
     14 O6         -6.0256    0.7682   -3.6387 O.3       1 <0>        0.00000
     15 O7         -6.8760   -0.5682   -1.5825 O.2       1 <0>        0.00000
     16 H1         -0.2593   -1.9715   -4.1620 H         1 <0>        0.00000
     17 H2          1.1032   -1.3909   -2.4525 H         1 <0>        0.00000
     18 H3          0.6937   -0.0270   -3.4994 H         1 <0>        0.00000
     19 H4          0.4871    0.6317   -1.1449 H         1 <0>        0.00000
     20 H5         -1.0731    0.7290   -1.9845 H         1 <0>        0.00000
     21 H6         -1.7049   -1.5174   -0.9923 H         1 <0>        0.00000
     22 H7         -0.3849   -2.2970    0.6540 H         1 <0>        0.00000
     23 H8         -0.8058    0.3955    1.2179 H         1 <0>        0.00000
     24 H9         -2.5351   -0.5532    2.2920 H         1 <0>        0.00000
     25 H10        -2.2705    1.7074   -0.3272 H         1 <0>        0.00000
     26 H11        -2.4173    1.9356    1.8898 H         1 <0>        0.00000
     27 H12        -4.4125   -0.4999    0.1473 H         1 <0>        0.00000
     28 H13        -3.7392    1.3447   -2.1946 H         1 <0>        0.00000
     29 H14        -5.5802   -1.9601   -3.8091 H         1 <0>        0.00000
     30 H15        -6.6441    0.4315   -4.3215 H         1 <0>        0.00000
@<TRIPOS>BOND
     1    1    2 1
     2    2    3 1
     3    3    4 1
     4    4    5 1
     5    4    6 1
     6    6    7 1
     7    6    8 1
     8    8    9 1
     9    8   10 1
    10   10   11 2
    11   11   12 1
    12   12   13 1
    13   12   14 1
    14   12   15 2
    15    1   16 1
    16    2   17 1
    17    2   18 1
    18    3   19 1
    19    3   20 1
    20    4   21 1
    21    5   22 1
    22    6   23 1
    23    7   24 1
    24    8   25 1
    25    9   26 1
    26   10   27 1
    27   11   28 1
    28   13   29 1
    29   14   30 1
@<TRIPOS>SUBSTRUCTURE
     1 <0>         1 GROUP 0 A     ****
@<TRIPOS>MOLECULE
MiniDrugBank_269
   85    87     1     0     0
SMALL
NO_CHARGES

@<TRIPOS>ATOM
      1 C1          2.5905    7.8054    1.7208 C.3       1 <0>        0.00000
      2 C2          2.4800    8.4328    0.3104 C.3       1 <0>        0.00000
      3 C3          3.7573    9.2624    0.0718 C.3       1 <0>        0.00000
      4 C4          2.3923    7.2949   -0.7360 C.3       1 <0>        0.00000
      5 O1          2.2888    7.8195   -2.0554 O.3       1 <0>        0.00000
      6 P1          2.1846    6.8125   -3.3138 P.3       1 <0>        0.00000
      7 O2          3.5468    5.9420   -3.2518 O.3       1 <0>        0.00000
      8 O3          1.9394    7.4857   -4.6331 O.2       1 <0>        0.00000
      9 O4          1.0441    5.7471   -2.8921 O.3       1 <0>        0.00000
     10 P2          0.4394    4.4722   -3.6808 P.3       1 <0>        0.00000
     11 O5         -0.1702    5.1324   -5.0259 O.3       1 <0>        0.00000
     12 O6          1.4180    3.3575   -3.9092 O.2       1 <0>        0.00000
     13 O7         -0.8680    4.0907   -2.8078 O.3       1 <0>        0.00000
     14 C5         -1.8900    5.0610   -2.6613 C.3       1 <0>        0.00000
     15 C6         -3.0058    4.4829   -1.8095 C.3       1 <0>        0.00000
     16 O8         -4.0481    5.4611   -1.6553 O.3       1 <0>        0.00000
     17 C7         -4.5460    5.3838   -0.3056 C.3       1 <0>        0.00000
     18 C8         -3.8702    4.1899    0.3568 C.3       1 <0>        0.00000
     19 O9         -3.6585    4.4340    1.7362 O.3       1 <0>        0.00000
     20 C9         -2.5632    4.1170   -0.4023 C.3       1 <0>        0.00000
     21 O10        -2.0134    2.8149   -0.3414 O.3       1 <0>        0.00000
     22 P3         -1.0604    2.4343    0.9124 P.3       1 <0>        0.00000
     23 O11        -2.0189    2.6404    2.1985 O.3       1 <0>        0.00000
     24 O12        -0.0499    3.6940    0.9960 O.3       1 <0>        0.00000
     25 O13        -0.3945    1.0928    0.8167 O.2       1 <0>        0.00000
     26 N1         -6.0043    5.2929   -0.3355 N.pl3     1 <0>        0.00000
     27 C10        -6.7561    4.7242   -1.3292 C.ar      1 <0>        0.00000
     28 N2         -8.0463    4.7895   -1.0746 N.ar      1 <0>        0.00000
     29 C11        -8.1339    5.4287    0.1365 C.ar      1 <0>        0.00000
     30 C12        -6.8732    5.7505    0.6136 C.ar      1 <0>        0.00000
     31 N3         -6.5755    6.3767    1.7620 N.ar      1 <0>        0.00000
     32 C13        -7.7033    6.6766    2.4425 C.ar      1 <0>        0.00000
     33 N4         -8.9914    6.4273    2.1042 N.ar      1 <0>        0.00000
     34 C14        -9.2180    5.7912    0.9296 C.ar      1 <0>        0.00000
     35 N5        -10.5323    5.5039    0.5235 N.pl3     1 <0>        0.00000
     36 C15         1.2114    9.3353    0.2674 C.3       1 <0>        0.00000
     37 O14         1.0839    9.9277   -1.0226 O.3       1 <0>        0.00000
     38 C16        -0.0979    8.5986    0.5422 C.2       1 <0>        0.00000
     39 O15        -0.7356    8.0382   -0.3474 O.2       1 <0>        0.00000
     40 N6         -0.4526    8.6172    1.8815 N.am      1 <0>        0.00000
     41 C17        -1.6372    7.9656    2.3909 C.3       1 <0>        0.00000
     42 C18        -1.3049    6.5345    2.7878 C.3       1 <0>        0.00000
     43 C19        -0.2364    6.4651    3.8641 C.2       1 <0>        0.00000
     44 O16         0.2937    7.4604    4.3501 O.2       1 <0>        0.00000
     45 N7          0.0525    5.1538    4.2122 N.am      1 <0>        0.00000
     46 C20         1.0353    4.8041    5.2118 C.3       1 <0>        0.00000
     47 C21         2.4267    4.6173    4.6291 C.3       1 <0>        0.00000
     48 S1          2.4801    3.2966    3.3799 S.3       1 <0>        0.00000
     49 O17         4.0937    3.4035    3.0064 O.3       1 <0>        0.00000
     50 H1          1.7062    7.1996    1.9503 H         1 <0>        0.00000
     51 H2          2.6720    8.5720    2.4994 H         1 <0>        0.00000
     52 H3          3.4703    7.1581    1.8049 H         1 <0>        0.00000
     53 H4          3.7483    9.7394   -0.9149 H         1 <0>        0.00000
     54 H5          4.6518    8.6312    0.1202 H         1 <0>        0.00000
     55 H6          3.8637   10.0613    0.8129 H         1 <0>        0.00000
     56 H7          1.5113    6.6685   -0.5618 H         1 <0>        0.00000
     57 H8          3.2810    6.6558   -0.6989 H         1 <0>        0.00000
     58 H9          3.6609    5.1946   -3.8767 H         1 <0>        0.00000
     59 H10         0.4411    5.5479   -5.6707 H         1 <0>        0.00000
     60 H11        -1.4683    5.9521   -2.1847 H         1 <0>        0.00000
     61 H12        -2.2674    5.3321   -3.6528 H         1 <0>        0.00000
     62 H13        -3.4347    3.6138   -2.3240 H         1 <0>        0.00000
     63 H14        -4.3152    6.3408    0.2096 H         1 <0>        0.00000
     64 H15        -4.4502    3.2651    0.2552 H         1 <0>        0.00000
     65 H16        -4.5315    4.5872    2.1359 H         1 <0>        0.00000
     66 H17        -1.8353    4.8262    0.0084 H         1 <0>        0.00000
     67 H18        -2.7877    2.0430    2.3177 H         1 <0>        0.00000
     68 H19         0.5846    3.7448    1.7423 H         1 <0>        0.00000
     69 H20        -6.3099    4.2804   -2.2087 H         1 <0>        0.00000
     70 H21        -7.5590    7.1873    3.3887 H         1 <0>        0.00000
     71 H22       -10.6900    5.0755   -0.3689 H         1 <0>        0.00000
     72 H23       -11.3011    5.8150    1.0867 H         1 <0>        0.00000
     73 H24         1.3126   10.1546    0.9904 H         1 <0>        0.00000
     74 H25         1.0077    9.1970   -1.6557 H         1 <0>        0.00000
     75 H26         0.1516    9.0828    2.5517 H         1 <0>        0.00000
     76 H27        -2.0149    8.5272    3.2512 H         1 <0>        0.00000
     77 H28        -2.4159    7.9822    1.6218 H         1 <0>        0.00000
     78 H29        -0.9515    5.9736    1.9137 H         1 <0>        0.00000
     79 H30        -2.2044    6.0286    3.1607 H         1 <0>        0.00000
     80 H31        -0.4496    4.4056    3.7431 H         1 <0>        0.00000
     81 H32         1.0450    5.6275    5.9308 H         1 <0>        0.00000
     82 H33         0.6787    3.9090    5.7276 H         1 <0>        0.00000
     83 H34         2.7880    5.5433    4.1702 H         1 <0>        0.00000
     84 H35         3.1201    4.3432    5.4303 H         1 <0>        0.00000
     85 H36         4.3084    4.3026    2.6633 H         1 <0>        0.00000
@<TRIPOS>BOND
     1    1    2 1
     2    2    3 1
     3    2    4 1
     4    4    5 1
     5    5    6 1
     6    6    7 1
     7    6    8 2
     8    6    9 1
     9    9   10 1
    10   10   11 1
    11   10   12 2
    12   10   13 1
    13   13   14 1
    14   14   15 1
    15   15   16 1
    16   16   17 1
    17   17   18 1
    18   18   19 1
    19   18   20 1
    20   15   20 1
    21   20   21 1
    22   21   22 1
    23   22   23 1
    24   22   24 1
    25   22   25 2
    26   17   26 1
    27   26   27 1
    28   27   28 2
    29   28   29 1
    30   29   30 ar
    31   26   30 1
    32   30   31 ar
    33   31   32 ar
    34   32   33 ar
    35   33   34 ar
    36   29   34 ar
    37   34   35 1
    38    2   36 1
    39   36   37 1
    40   36   38 1
    41   38   39 2
    42   38   40 am
    43   40   41 1
    44   41   42 1
    45   42   43 1
    46   43   44 2
    47   43   45 am
    48   45   46 1
    49   46   47 1
    50   47   48 1
    51   48   49 1
    52    1   50 1
    53    1   51 1
    54    1   52 1
    55    3   53 1
    56    3   54 1
    57    3   55 1
    58    4   56 1
    59    4   57 1
    60    7   58 1
    61   11   59 1
    62   14   60 1
    63   14   61 1
    64   15   62 1
    65   17   63 1
    66   18   64 1
    67   19   65 1
    68   20   66 1
    69   23   67 1
    70   24   68 1
    71   27   69 1
    72   32   70 1
    73   35   71 1
    74   35   72 1
    75   36   73 1
    76   37   74 1
    77   40   75 1
    78   41   76 1
    79   41   77 1
    80   42   78 1
    81   42   79 1
    82   45   80 1
    83   46   81 1
    84   46   82 1
    85   47   83 1
    86   47   84 1
    87   49   85 1
@<TRIPOS>SUBSTRUCTURE
     1 <0>         1 GROUP 0 A     ****
@<TRIPOS>MOLECULE
MiniDrugBank_270
   67    72     1     0     0
SMALL
NO_CHARGES

@<TRIPOS>ATOM
      1 O1          5.6945   -5.6114   -0.7744 O.3       1 <0>        0.00000
      2 P1          4.7028   -4.3339   -0.7749 P.3       1 <0>        0.00000
      3 O2          4.2838   -4.1963   -2.3306 O.3       1 <0>        0.00000
      4 O3          5.2813   -3.0903   -0.1670 O.2       1 <0>        0.00000
      5 C1          3.2324   -4.9280    0.0106 C.3       1 <0>        0.00000
      6 F1          3.7386   -5.2827    1.2194 F         1 <0>        0.00000
      7 F2          3.0280   -6.0803   -0.6771 F         1 <0>        0.00000
      8 C2          2.0474   -4.0251    0.0799 C.ar      1 <0>        0.00000
      9 C3          1.1027   -4.0350   -0.9462 C.ar      1 <0>        0.00000
     10 C4         -0.0057   -3.1906   -0.8818 C.ar      1 <0>        0.00000
     11 C5         -0.1693   -2.3363    0.2087 C.ar      1 <0>        0.00000
     12 C6         -1.3768   -1.4192    0.2803 C.3       1 <0>        0.00000
     13 C7         -1.2395    0.0226   -0.3572 C.3       1 <0>        0.00000
     14 C8         -0.0786    0.8175    0.3577 C.3       1 <0>        0.00000
     15 C9         -0.2583    1.0283    1.8435 C.2       1 <0>        0.00000
     16 C10        -0.3223    2.2419    2.4139 C.2       1 <0>        0.00000
     17 C11        -0.4863    2.4844    3.8555 C.ar      1 <0>        0.00000
     18 C12        -0.1757    1.4793    4.7715 C.ar      1 <0>        0.00000
     19 C13        -0.3312    1.7092    6.1385 C.ar      1 <0>        0.00000
     20 C14        -0.7974    2.9441    6.5895 C.ar      1 <0>        0.00000
     21 C15        -1.1079    3.9492    5.6735 C.ar      1 <0>        0.00000
     22 C16        -0.9524    3.7193    4.3065 C.ar      1 <0>        0.00000
     23 N1         -2.6224    0.7227   -0.2153 N.pl3     1 <0>        0.00000
     24 N2         -3.6609    0.1223    0.3558 N.ar      1 <0>        0.00000
     25 N3         -4.6930    0.9816    0.3236 N.ar      1 <0>        0.00000
     26 C17        -4.3515    2.1625   -0.2697 C.ar      1 <0>        0.00000
     27 C18        -3.0184    1.9740   -0.6075 C.ar      1 <0>        0.00000
     28 C19        -2.3175    3.0046   -1.2507 C.ar      1 <0>        0.00000
     29 C20        -3.0013    4.1955   -1.5285 C.ar      1 <0>        0.00000
     30 C21        -4.3448    4.3559   -1.1757 C.ar      1 <0>        0.00000
     31 C22        -5.0553    3.3356   -0.5337 C.ar      1 <0>        0.00000
     32 C23        -0.8564   -0.0265   -1.8713 C.ar      1 <0>        0.00000
     33 N4          0.2308    0.5066   -2.3779 N.ar      1 <0>        0.00000
     34 C24         0.2637    0.2828   -3.7466 C.ar      1 <0>        0.00000
     35 C25        -0.8241   -0.4308   -4.2589 C.ar      1 <0>        0.00000
     36 S1         -1.9011   -0.8190   -2.9697 S.3       1 <0>        0.00000
     37 C26        -0.9339   -0.7357   -5.6252 C.ar      1 <0>        0.00000
     38 C27         0.0816   -0.3060   -6.4832 C.ar      1 <0>        0.00000
     39 C28         1.1730    0.4052   -5.9969 C.ar      1 <0>        0.00000
     40 C29         1.2759    0.7052   -4.6354 C.ar      1 <0>        0.00000
     41 C30         0.7754   -2.3265    1.2349 C.ar      1 <0>        0.00000
     42 C31         1.8838   -3.1710    1.1705 C.ar      1 <0>        0.00000
     43 H1          6.5510   -5.5470   -1.2483 H         1 <0>        0.00000
     44 H2          4.9730   -3.9651   -2.9890 H         1 <0>        0.00000
     45 H3          1.2216   -4.6972   -1.7996 H         1 <0>        0.00000
     46 H4         -0.7375   -3.2054   -1.6853 H         1 <0>        0.00000
     47 H5         -2.2199   -1.9577   -0.1726 H         1 <0>        0.00000
     48 H6         -1.6506   -1.3320    1.3420 H         1 <0>        0.00000
     49 H7          0.8811    0.3097    0.1870 H         1 <0>        0.00000
     50 H8          0.0437    1.8087   -0.0944 H         1 <0>        0.00000
     51 H9         -0.3526    0.1351    2.4535 H         1 <0>        0.00000
     52 H10        -0.2589    3.1299    1.7894 H         1 <0>        0.00000
     53 H11         0.1887    0.5115    4.4354 H         1 <0>        0.00000
     54 H12        -0.0896    0.9266    6.8518 H         1 <0>        0.00000
     55 H13        -0.9184    3.1231    7.6539 H         1 <0>        0.00000
     56 H14        -1.4706    4.9108    6.0248 H         1 <0>        0.00000
     57 H15        -1.1987    4.5127    3.6048 H         1 <0>        0.00000
     58 H16        -1.2744    2.8898   -1.5279 H         1 <0>        0.00000
     59 H17        -2.4776    5.0080   -2.0259 H         1 <0>        0.00000
     60 H18        -4.8481    5.2921   -1.4046 H         1 <0>        0.00000
     61 H19        -6.0965    3.4604   -0.2601 H         1 <0>        0.00000
     62 H20        -1.7824   -1.2917   -6.0120 H         1 <0>        0.00000
     63 H21         0.0159   -0.5314   -7.5444 H         1 <0>        0.00000
     64 H22         1.9529    0.7313   -6.6794 H         1 <0>        0.00000
     65 H23         2.1335    1.2606   -4.2664 H         1 <0>        0.00000
     66 H24         0.6554   -1.6651    2.0888 H         1 <0>        0.00000
     67 H25         2.6149   -3.1569    1.9744 H         1 <0>        0.00000
@<TRIPOS>BOND
     1    1    2 1
     2    2    3 1
     3    2    4 2
     4    2    5 1
     5    5    6 1
     6    5    7 1
     7    5    8 1
     8    8    9 ar
     9    9   10 ar
    10   10   11 ar
    11   11   12 1
    12   12   13 1
    13   13   14 1
    14   14   15 1
    15   15   16 2
    16   16   17 1
    17   17   18 ar
    18   18   19 ar
    19   19   20 ar
    20   20   21 ar
    21   21   22 ar
    22   17   22 ar
    23   13   23 1
    24   23   24 1
    25   24   25 2
    26   25   26 1
    27   26   27 ar
    28   23   27 1
    29   27   28 ar
    30   28   29 ar
    31   29   30 ar
    32   30   31 ar
    33   26   31 ar
    34   13   32 1
    35   32   33 2
    36   33   34 1
    37   34   35 ar
    38   35   36 1
    39   32   36 1
    40   35   37 ar
    41   37   38 ar
    42   38   39 ar
    43   39   40 ar
    44   34   40 ar
    45   11   41 ar
    46   41   42 ar
    47    8   42 ar
    48    1   43 1
    49    3   44 1
    50    9   45 1
    51   10   46 1
    52   12   47 1
    53   12   48 1
    54   14   49 1
    55   14   50 1
    56   15   51 1
    57   16   52 1
    58   18   53 1
    59   19   54 1
    60   20   55 1
    61   21   56 1
    62   22   57 1
    63   28   58 1
    64   29   59 1
    65   30   60 1
    66   31   61 1
    67   37   62 1
    68   38   63 1
    69   39   64 1
    70   40   65 1
    71   41   66 1
    72   42   67 1
@<TRIPOS>SUBSTRUCTURE
     1 <0>         1 GROUP 0 A     ****
@<TRIPOS>MOLECULE
MiniDrugBank_271
   33    34     1     0     0
SMALL
NO_CHARGES

@<TRIPOS>ATOM
      1 C1         -4.5471   -0.4724    3.2738 C.ar      1 <0>        0.00000
      2 C2         -2.7685   -0.4315    1.8936 C.ar      1 <0>        0.00000
      3 C3         -1.8022   -0.7245    0.9247 C.ar      1 <0>        0.00000
      4 C4         -0.7671    0.1975    0.7446 C.ar      1 <0>        0.00000
      5 C5          0.3267    3.4187    2.1143 C.3       1 <0>        0.00000
      6 C6         -3.8586    0.6897    3.5356 C.ar      1 <0>        0.00000
      7 C7         -4.2101    1.7253    4.5325 C.3       1 <0>        0.00000
      8 N1         -4.5230    3.5417    2.8867 N.am      1 <0>        0.00000
      9 C8         -3.7375    4.6665    3.0518 C.2       1 <0>        0.00000
     10 C9         -3.2152    5.2359    1.7746 C.3       1 <0>        0.00000
     11 I1         -6.2766   -1.1492    4.1730 I         1 <0>        0.00000
     12 N2         -3.8818   -1.1421    2.2822 N.pl3     1 <0>        0.00000
     13 C10        -0.7036    1.3640    1.5041 C.ar      1 <0>        0.00000
     14 O1          0.3179    2.2442    1.3058 O.3       1 <0>        0.00000
     15 C11        -1.6773    1.6439    2.4698 C.ar      1 <0>        0.00000
     16 C12        -2.7304    0.7292    2.6692 C.ar      1 <0>        0.00000
     17 C13        -5.1247    2.8345    3.9852 C.3       1 <0>        0.00000
     18 O2         -3.4504    5.2040    4.1150 O.2       1 <0>        0.00000
     19 H1         -1.8504   -1.6328    0.3335 H         1 <0>        0.00000
     20 H2         -0.0025   -0.0063   -0.0016 H         1 <0>        0.00000
     21 H3          1.1921    4.0337    1.8556 H         1 <0>        0.00000
     22 H4          0.3696    3.1358    3.1691 H         1 <0>        0.00000
     23 H5         -0.5888    3.9853    1.9281 H         1 <0>        0.00000
     24 H6         -3.2900    2.2024    4.9212 H         1 <0>        0.00000
     25 H7         -4.6899    1.2760    5.4241 H         1 <0>        0.00000
     26 H8         -4.6894    3.1812    1.9520 H         1 <0>        0.00000
     27 H9         -3.8956    5.9853    1.3391 H         1 <0>        0.00000
     28 H10        -2.2544    5.7583    1.9089 H         1 <0>        0.00000
     29 H11        -3.0371    4.5043    0.9704 H         1 <0>        0.00000
     30 H12        -4.1666   -2.0300    1.8928 H         1 <0>        0.00000
     31 H13        -1.6190    2.5561    3.0574 H         1 <0>        0.00000
     32 H14        -6.0660    2.4170    3.6140 H         1 <0>        0.00000
     33 H15        -5.3600    3.5694    4.7620 H         1 <0>        0.00000
@<TRIPOS>BOND
     1    1   12 1
     2    2    3 ar
     3    3    4 ar
     4    1    6 2
     5    6   16 1
     6    7   17 1
     7    6    7 1
     8    8   17 1
     9    8    9 am
    10    9   18 2
    11    9   10 1
    12    1   11 1
    13    2   12 1
    14    4   13 ar
    15   13   14 1
    16    5   14 1
    17   15   16 ar
    18   13   15 ar
    19    2   16 ar
    20    3   19 1
    21    4   20 1
    22    5   21 1
    23    5   22 1
    24    5   23 1
    25    7   24 1
    26    7   25 1
    27    8   26 1
    28   10   27 1
    29   10   28 1
    30   10   29 1
    31   12   30 1
    32   15   31 1
    33   17   32 1
    34   17   33 1
@<TRIPOS>SUBSTRUCTURE
     1 <0>         1 GROUP 0 A     ****
@<TRIPOS>MOLECULE
MiniDrugBank_272
   48    50     1     0     0
SMALL
NO_CHARGES

@<TRIPOS>ATOM
      1 N1          2.4867   -0.4643    5.5977 N.pl3     1 <0>        0.00000
      2 C1          1.2655   -0.5785    4.9859 C.ar      1 <0>        0.00000
      3 N2          0.9388    0.1474    3.9387 N.ar      1 <0>        0.00000
      4 C2         -0.3066   -0.1124    3.4830 C.ar      1 <0>        0.00000
      5 C3         -1.2344   -1.0057    3.9612 C.ar      1 <0>        0.00000
      6 N3         -2.3879   -0.9856    3.2343 N.ar      1 <0>        0.00000
      7 C4         -2.1633   -0.0748    2.3076 C.ar      1 <0>        0.00000
      8 N4         -0.9134    0.4840    2.4171 N.pl3     1 <0>        0.00000
      9 C5         -0.3571    1.5191    1.5483 C.3       1 <0>        0.00000
     10 O1         -1.4267    2.3479    1.0536 O.3       1 <0>        0.00000
     11 C6         -1.2921    2.4556   -0.3738 C.3       1 <0>        0.00000
     12 C7         -1.6307    3.8699   -0.8096 C.3       1 <0>        0.00000
     13 O2         -0.7414    4.7732   -0.1769 O.3       1 <0>        0.00000
     14 P1         -1.2653    6.2692    0.1509 P.3       1 <0>        0.00000
     15 O3         -2.1334    6.6621   -1.1561 O.3       1 <0>        0.00000
     16 O4         -0.1969    7.2557    0.5216 O.2       1 <0>        0.00000
     17 O5         -2.3945    6.0247    1.2801 O.3       1 <0>        0.00000
     18 P2         -3.3409    7.0657    2.0747 P.3       1 <0>        0.00000
     19 O6         -2.2805    8.0195    2.8363 O.3       1 <0>        0.00000
     20 O7         -4.3403    7.7848    1.2175 O.2       1 <0>        0.00000
     21 O8         -3.9613    6.1634    3.2610 O.3       1 <0>        0.00000
     22 P3         -4.8690    4.8252    3.2476 P.3       1 <0>        0.00000
     23 O9         -3.9478    3.7459    2.4651 O.3       1 <0>        0.00000
     24 O10        -4.7766    4.3019    4.7788 O.3       1 <0>        0.00000
     25 S1         -6.6723    5.0262    2.5605 S.2       1 <0>        0.00000
     26 C8          0.1385    2.0525   -0.6912 C.3       1 <0>        0.00000
     27 O11         0.2665    1.5431   -2.0049 O.3       1 <0>        0.00000
     28 C9          0.3852    0.9698    0.3367 C.3       1 <0>        0.00000
     29 O12         1.7661    0.8230    0.6176 O.3       1 <0>        0.00000
     30 C10        -0.9072   -1.8129    5.1038 C.ar      1 <0>        0.00000
     31 O13        -1.6692   -2.6337    5.5987 O.2       1 <0>        0.00000
     32 N5          0.3874   -1.5280    5.5602 N.am      1 <0>        0.00000
     33 H1          3.1637    0.1928    5.2434 H         1 <0>        0.00000
     34 H2          2.7005   -1.0380    6.3982 H         1 <0>        0.00000
     35 H3         -2.8609    0.2226    1.5364 H         1 <0>        0.00000
     36 H4          0.2960    2.1391    2.1995 H         1 <0>        0.00000
     37 H5         -2.0069    1.7632   -0.8328 H         1 <0>        0.00000
     38 H6         -2.6553    4.1249   -0.5227 H         1 <0>        0.00000
     39 H7         -1.5258    3.9731   -1.8937 H         1 <0>        0.00000
     40 H8         -2.6430    7.5002   -1.1529 H         1 <0>        0.00000
     41 H9         -1.6915    8.5948    2.3030 H         1 <0>        0.00000
     42 H10        -3.0696    3.5165    2.8371 H         1 <0>        0.00000
     43 H11        -3.8964    4.0772    5.1490 H         1 <0>        0.00000
     44 H12         0.8446    2.8814   -0.5657 H         1 <0>        0.00000
     45 H13        -0.0139    2.2478   -2.6142 H         1 <0>        0.00000
     46 H14        -0.0038    0.0013    0.0006 H         1 <0>        0.00000
     47 H15         1.8488    0.1163    1.2803 H         1 <0>        0.00000
     48 H16         0.7221   -2.0449    6.3684 H         1 <0>        0.00000
@<TRIPOS>BOND
     1    1    2 1
     2    2    3 2
     3    3    4 1
     4    4    5 2
     5    5    6 1
     6    6    7 2
     7    7    8 1
     8    4    8 1
     9    8    9 1
    10    9   10 1
    11   10   11 1
    12   11   12 1
    13   12   13 1
    14   13   14 1
    15   14   15 1
    16   14   16 2
    17   14   17 1
    18   17   18 1
    19   18   19 1
    20   18   20 2
    21   18   21 1
    22   21   22 1
    23   22   23 1
    24   22   24 1
    25   22   25 2
    26   11   26 1
    27   26   27 1
    28   26   28 1
    29    9   28 1
    30   28   29 1
    31    5   30 1
    32   30   31 2
    33   30   32 am
    34    2   32 1
    35    1   33 1
    36    1   34 1
    37    7   35 1
    38    9   36 1
    39   11   37 1
    40   12   38 1
    41   12   39 1
    42   15   40 1
    43   19   41 1
    44   23   42 1
    45   24   43 1
    46   26   44 1
    47   27   45 1
    48   28   46 1
    49   29   47 1
    50   32   48 1
@<TRIPOS>SUBSTRUCTURE
     1 <0>         1 GROUP 0 A     ****
@<TRIPOS>MOLECULE
MiniDrugBank_273
   39    41     1     0     0
SMALL
NO_CHARGES

@<TRIPOS>ATOM
      1 C1          2.1300   -5.8526   -2.5918 C.2       1 <0>        0.00000
      2 O1          2.0908   -6.9532   -3.1162 O.2       1 <0>        0.00000
      3 O2          3.2573   -5.1237   -2.4389 O.3       1 <0>        0.00000
      4 C2          0.9854   -5.1661   -2.0600 C.ar      1 <0>        0.00000
      5 C3         -0.2981   -5.6705   -2.0787 C.ar      1 <0>        0.00000
      6 C4         -0.8138   -6.9505   -2.6061 C.3       1 <0>        0.00000
      7 C5         -1.8319   -6.7631   -3.7542 C.3       1 <0>        0.00000
      8 C6         -1.4390   -7.8456   -1.5116 C.3       1 <0>        0.00000
      9 S1         -1.3683   -4.5474   -1.3476 S.3       1 <0>        0.00000
     10 C7         -0.0396   -3.4962   -1.0746 C.ar      1 <0>        0.00000
     11 N1          1.1355   -3.9192   -1.4850 N.ar      1 <0>        0.00000
     12 C8         -0.2823   -2.1624   -0.3897 C.3       1 <0>        0.00000
     13 N2          0.4847   -2.0505    0.8634 N.3       1 <0>        0.00000
     14 C9          0.0642   -0.8623    1.6170 C.3       1 <0>        0.00000
     15 C10         0.0303    0.4053    0.7991 C.ar      1 <0>        0.00000
     16 C11        -0.0238    0.3513   -0.6050 C.ar      1 <0>        0.00000
     17 C12         0.0427   -0.9760   -1.3204 C.3       1 <0>        0.00000
     18 C13        -0.0806    1.5410   -1.3428 C.ar      1 <0>        0.00000
     19 C14        -0.1094    2.7735   -0.6912 C.ar      1 <0>        0.00000
     20 C15        -0.0765    2.8274    0.7004 C.ar      1 <0>        0.00000
     21 C16        -0.0098    1.6491    1.4436 C.ar      1 <0>        0.00000
     22 H1         -1.3722   -2.1362   -0.1375 H         1 <0>        0.00000
     23 H2          4.0450   -5.5837   -2.8000 H         1 <0>        0.00000
     24 H3          0.0123   -7.5533   -3.0416 H         1 <0>        0.00000
     25 H4         -2.1972   -7.7269   -4.1254 H         1 <0>        0.00000
     26 H5         -1.3972   -6.2235   -4.6026 H         1 <0>        0.00000
     27 H6         -2.6977   -6.1916   -3.4013 H         1 <0>        0.00000
     28 H7         -1.8054   -8.7798   -1.9518 H         1 <0>        0.00000
     29 H8         -2.2834   -7.3552   -1.0151 H         1 <0>        0.00000
     30 H9         -0.7054   -8.1049   -0.7404 H         1 <0>        0.00000
     31 H10         0.3247   -2.8756    1.4419 H         1 <0>        0.00000
     32 H11        -0.9335   -1.0315    2.0412 H         1 <0>        0.00000
     33 H12         0.7626   -0.7342    2.4520 H         1 <0>        0.00000
     34 H13         1.0530   -1.0817   -1.7392 H         1 <0>        0.00000
     35 H14        -0.6626   -0.9758   -2.1619 H         1 <0>        0.00000
     36 H15        -0.1032    1.5120   -2.4292 H         1 <0>        0.00000
     37 H16        -0.1588    3.6915   -1.2696 H         1 <0>        0.00000
     38 H17        -0.1041    3.7875    1.2074 H         1 <0>        0.00000
     39 H18         0.0098    1.7051    2.5290 H         1 <0>        0.00000
@<TRIPOS>BOND
     1    1    2 2
     2    1    3 1
     3    1    4 1
     4    4    5 2
     5    4   11 1
     6    5    6 1
     7    5    9 1
     8    6    7 1
     9    6    8 1
    10    9   10 1
    11   10   11 2
    12   10   12 1
    13   12   13 1
    14   12   17 1
    15   12   22 1
    16   13   14 1
    17   14   15 1
    18   15   16 ar
    19   15   21 ar
    20   16   17 1
    21   16   18 ar
    22   18   19 ar
    23   19   20 ar
    24   20   21 ar
    25    3   23 1
    26    6   24 1
    27    7   25 1
    28    7   26 1
    29    7   27 1
    30    8   28 1
    31    8   29 1
    32    8   30 1
    33   13   31 1
    34   14   32 1
    35   14   33 1
    36   17   34 1
    37   17   35 1
    38   18   36 1
    39   19   37 1
    40   20   38 1
    41   21   39 1
@<TRIPOS>SUBSTRUCTURE
     1 <0>         1 GROUP 0 A     ****
@<TRIPOS>MOLECULE
MiniDrugBank_274
   27    28     1     0     0
SMALL
NO_CHARGES

@<TRIPOS>ATOM
      1 C1         -5.8317   -0.7976   -5.7448 C.1       1 <0>        0.00000
      2 C2         -5.6835   -0.1312   -4.7571 C.1       1 <0>        0.00000
      3 C3         -5.5080    0.6818   -3.5512 C.3       1 <0>        0.00000
      4 N1         -4.0934    0.8711   -3.2600 N.3       1 <0>        0.00000
      5 C4         -3.9141    1.6695   -2.0758 C.3       1 <0>        0.00000
      6 C5         -4.0820    3.1748   -2.3605 C.3       1 <0>        0.00000
      7 C6         -2.6899    3.7139   -2.7313 C.3       1 <0>        0.00000
      8 C7         -1.8062    2.7901   -1.9539 C.ar      1 <0>        0.00000
      9 C8         -2.4976    1.6288   -1.5857 C.ar      1 <0>        0.00000
     10 C9         -1.8645    0.6150   -0.8847 C.ar      1 <0>        0.00000
     11 C10        -0.4685    2.9566   -1.6376 C.ar      1 <0>        0.00000
     12 C11         0.1745    1.9421   -0.9253 C.ar      1 <0>        0.00000
     13 C12        -0.5186    0.7801   -0.5508 C.ar      1 <0>        0.00000
     14 O1          0.1314   -0.1978    0.1405 O.3       1 <0>        0.00000
     15 H1         -4.6162    1.3564   -1.2834 H         1 <0>        0.00000
     16 H2         -5.9627   -1.3890   -6.6206 H         1 <0>        0.00000
     17 H3         -5.9883    0.1996   -2.6942 H         1 <0>        0.00000
     18 H4         -5.9815    1.6596   -3.6853 H         1 <0>        0.00000
     19 H5         -3.6548   -0.0388   -3.1208 H         1 <0>        0.00000
     20 H6         -4.8319    3.3986   -3.1272 H         1 <0>        0.00000
     21 H7         -4.4196    3.6722   -1.4395 H         1 <0>        0.00000
     22 H8         -2.4960    3.6101   -3.8037 H         1 <0>        0.00000
     23 H9         -2.5746    4.7581   -2.4278 H         1 <0>        0.00000
     24 H10        -2.4004   -0.2861   -0.6040 H         1 <0>        0.00000
     25 H11         0.0714    3.8497   -1.9333 H         1 <0>        0.00000
     26 H12         1.2237    2.0564   -0.6643 H         1 <0>        0.00000
     27 H13        -0.4712   -0.9355    0.3236 H         1 <0>        0.00000
@<TRIPOS>BOND
     1    1    2 3
     2    2    3 1
     3    3    4 1
     4    4    5 1
     5    5    6 1
     6    5    9 1
     7    5   15 1
     8    6    7 1
     9    7    8 1
    10    8    9 ar
    11    8   11 ar
    12    9   10 ar
    13   10   13 ar
    14   11   12 ar
    15   12   13 ar
    16   13   14 1
    17    1   16 1
    18    3   17 1
    19    3   18 1
    20    4   19 1
    21    6   20 1
    22    6   21 1
    23    7   22 1
    24    7   23 1
    25   10   24 1
    26   11   25 1
    27   12   26 1
    28   14   27 1
@<TRIPOS>SUBSTRUCTURE
     1 <0>         1 GROUP 0 A     ****
@<TRIPOS>MOLECULE
MiniDrugBank_275
   56    57     1     0     0
SMALL
NO_CHARGES

@<TRIPOS>ATOM
      1 O1          7.0419   -3.3624   -3.0545 O.3       1 <0>        0.00000
      2 C1          6.7104   -2.0543   -3.1942 C.2       1 <0>        0.00000
      3 O2          5.6316   -1.6745   -3.6301 O.2       1 <0>        0.00000
      4 C2          7.8203   -1.1284   -2.7669 C.3       1 <0>        0.00000
      5 C3          7.4051    0.3286   -2.9406 C.3       1 <0>        0.00000
      6 C4          8.4924    1.3244   -2.5227 C.3       1 <0>        0.00000
      7 C5          8.1206    2.8028   -2.6795 C.3       1 <0>        0.00000
      8 C6          6.9209    3.1960   -1.8670 C.2       1 <0>        0.00000
      9 C7          5.7920    3.6899   -2.3959 C.2       1 <0>        0.00000
     10 C8          4.5977    4.0828   -1.5888 C.3       1 <0>        0.00000
     11 C9          4.2040    5.5727   -1.7337 C.3       1 <0>        0.00000
     12 C10         2.7983    5.5987   -1.1612 C.3       1 <0>        0.00000
     13 N1          3.9228    5.8436   -3.1693 N.2       1 <0>        0.00000
     14 N2          2.8228    5.2835   -3.4515 N.2       1 <0>        0.00000
     15 C11         2.3477    4.6033   -2.2173 C.3       1 <0>        0.00000
     16 C12         3.2790    3.3805   -2.0241 C.3       1 <0>        0.00000
     17 C13         2.7808    2.4177   -0.9977 C.2       1 <0>        0.00000
     18 C14         2.6098    1.1073   -1.2242 C.2       1 <0>        0.00000
     19 C15         2.1032    0.1409   -0.1933 C.3       1 <0>        0.00000
     20 C16         3.1265   -0.9624    0.0834 C.3       1 <0>        0.00000
     21 C17         4.4433   -0.3807    0.6016 C.3       1 <0>        0.00000
     22 C18         5.4678   -1.4821    0.8788 C.3       1 <0>        0.00000
     23 C19         6.7830   -0.9003    1.3964 C.3       1 <0>        0.00000
     24 C20         7.8044   -1.9918    1.6734 C.3       1 <0>        0.00000
     25 H1          4.8218    3.8736   -0.5343 H         1 <0>        0.00000
     26 H2          4.9052    6.2861   -1.2955 H         1 <0>        0.00000
     27 H3          1.2768    4.3895   -2.2412 H         1 <0>        0.00000
     28 H4          3.3935    2.8407   -2.9728 H         1 <0>        0.00000
     29 H5          7.9388   -3.5276   -2.6928 H         1 <0>        0.00000
     30 H6          8.7208   -1.3756   -3.3387 H         1 <0>        0.00000
     31 H7          8.0489   -1.3409   -1.7160 H         1 <0>        0.00000
     32 H8          6.5116    0.5209   -2.3325 H         1 <0>        0.00000
     33 H9          7.1030    0.5127   -3.9784 H         1 <0>        0.00000
     34 H10         9.3992    1.1289   -3.1087 H         1 <0>        0.00000
     35 H11         8.7557    1.1290   -1.4750 H         1 <0>        0.00000
     36 H12         7.9771    3.0438   -3.7390 H         1 <0>        0.00000
     37 H13         8.9688    3.4118   -2.3431 H         1 <0>        0.00000
     38 H14         6.9970    3.0709   -0.7897 H         1 <0>        0.00000
     39 H15         5.7147    3.8180   -3.4723 H         1 <0>        0.00000
     40 H16         2.7207    5.2433   -0.1302 H         1 <0>        0.00000
     41 H17         2.3153    6.5760   -1.2663 H         1 <0>        0.00000
     42 H18         2.5516    2.8276   -0.0177 H         1 <0>        0.00000
     43 H19         2.8357    0.7008   -2.2070 H         1 <0>        0.00000
     44 H20         1.1701   -0.3016   -0.5623 H         1 <0>        0.00000
     45 H21         1.8601    0.6609    0.7413 H         1 <0>        0.00000
     46 H22         2.7229   -1.6677    0.8211 H         1 <0>        0.00000
     47 H23         3.3141   -1.5324   -0.8354 H         1 <0>        0.00000
     48 H24         4.8501    0.3217   -0.1361 H         1 <0>        0.00000
     49 H25         4.2570    0.1875    1.5210 H         1 <0>        0.00000
     50 H26         5.0614   -2.1848    1.6166 H         1 <0>        0.00000
     51 H27         5.6540   -2.0505   -0.0405 H         1 <0>        0.00000
     52 H28         6.6029   -0.3343    2.3178 H         1 <0>        0.00000
     53 H29         7.1956   -0.2000    0.6608 H         1 <0>        0.00000
     54 H30         8.7427   -1.5663    2.0434 H         1 <0>        0.00000
     55 H31         7.4297   -2.6995    2.4198 H         1 <0>        0.00000
     56 H32         8.0222   -2.5485    0.7565 H         1 <0>        0.00000
@<TRIPOS>BOND
     1    1    2 1
     2    2    3 2
     3    2    4 1
     4    4    5 1
     5    5    6 1
     6    6    7 1
     7    7    8 1
     8    8    9 2
     9    9   10 1
    10   10   11 1
    11   10   16 1
    12   10   25 1
    13   11   12 1
    14   11   13 1
    15   11   26 1
    16   12   15 1
    17   13   14 2
    18   14   15 1
    19   15   16 1
    20   15   27 1
    21   16   17 1
    22   16   28 1
    23   17   18 2
    24   18   19 1
    25   19   20 1
    26   20   21 1
    27   21   22 1
    28   22   23 1
    29   23   24 1
    30    1   29 1
    31    4   30 1
    32    4   31 1
    33    5   32 1
    34    5   33 1
    35    6   34 1
    36    6   35 1
    37    7   36 1
    38    7   37 1
    39    8   38 1
    40    9   39 1
    41   12   40 1
    42   12   41 1
    43   17   42 1
    44   18   43 1
    45   19   44 1
    46   19   45 1
    47   20   46 1
    48   20   47 1
    49   21   48 1
    50   21   49 1
    51   22   50 1
    52   22   51 1
    53   23   52 1
    54   23   53 1
    55   24   54 1
    56   24   55 1
    57   24   56 1
@<TRIPOS>SUBSTRUCTURE
     1 <0>         1 GROUP 0 A     ****
@<TRIPOS>MOLECULE
MiniDrugBank_276
   38    39     1     0     0
SMALL
NO_CHARGES

@<TRIPOS>ATOM
      1 C1         -0.8139   -2.7362    0.2975 C.ar      1 <0>        0.00000
      2 C2         -0.6770   -2.0153    1.4837 C.ar      1 <0>        0.00000
      3 C3         -0.4640   -0.6374    1.4417 C.ar      1 <0>        0.00000
      4 C4         -0.3879    0.0195    0.2136 C.ar      1 <0>        0.00000
      5 C5         -0.5247   -0.7015   -0.9726 C.ar      1 <0>        0.00000
      6 C6         -0.7377   -2.0794   -0.9307 C.ar      1 <0>        0.00000
      7 C7         -0.8767   -2.8186   -2.1456 C.1       1 <0>        0.00000
      8 C8         -0.9942   -3.4416   -3.1693 C.1       1 <0>        0.00000
      9 N1         -0.3253    0.0947    2.6393 N.pl3     1 <0>        0.00000
     10 C9         -0.6362    1.4239    2.9860 C.ar      1 <0>        0.00000
     11 C10         0.1043    2.1007    3.9553 C.ar      1 <0>        0.00000
     12 C11        -0.2178    3.4169    4.2860 C.ar      1 <0>        0.00000
     13 C12        -1.2804    4.0564    3.6475 C.ar      1 <0>        0.00000
     14 C13        -2.0209    3.3796    2.6783 C.ar      1 <0>        0.00000
     15 C14        -1.6988    2.0633    2.3476 C.ar      1 <0>        0.00000
     16 F1         -2.4177    1.4231    1.4144 F         1 <0>        0.00000
     17 F2         -3.0412    3.9937    2.0652 F         1 <0>        0.00000
     18 C15         1.2202    1.4614    4.6410 C.2       1 <0>        0.00000
     19 O1          1.2527    1.3034    5.8701 O.2       1 <0>        0.00000
     20 N2          2.2753    1.0515    3.8407 N.am      1 <0>        0.00000
     21 O2          3.3474    0.4351    4.5161 O.3       1 <0>        0.00000
     22 C16         3.9544   -0.5006    3.6355 C.3       1 <0>        0.00000
     23 C17         5.1120   -1.1740    4.3480 C.3       1 <0>        0.00000
     24 O3          4.6195   -1.8447    5.5017 O.3       1 <0>        0.00000
     25 F3         -0.7509   -2.6566    2.6587 F         1 <0>        0.00000
     26 H1         -0.9790   -3.8098    0.3462 H         1 <0>        0.00000
     27 H2         -0.2200    1.0926    0.1694 H         1 <0>        0.00000
     28 H3         -0.4617   -0.1754   -1.9221 H         1 <0>        0.00000
     29 H4         -1.0984   -3.9930   -4.0745 H         1 <0>        0.00000
     30 H5          0.0789   -0.4432    3.4002 H         1 <0>        0.00000
     31 H6          0.3515    3.9551    5.0395 H         1 <0>        0.00000
     32 H7         -1.5316    5.0812    3.9046 H         1 <0>        0.00000
     33 H8          2.2755    1.1862    2.8361 H         1 <0>        0.00000
     34 H9          3.1962   -1.2321    3.3380 H         1 <0>        0.00000
     35 H10         4.3111    0.0391    2.7528 H         1 <0>        0.00000
     36 H11         5.8560   -0.4396    4.6723 H         1 <0>        0.00000
     37 H12         5.5849   -1.9148    3.6967 H         1 <0>        0.00000
     38 H13         5.3843   -2.2615    5.9298 H         1 <0>        0.00000
@<TRIPOS>BOND
     1    1    2 ar
     2    1    6 ar
     3    2   25 1
     4    2    3 ar
     5    3    9 1
     6    3    4 ar
     7    4    5 ar
     8    5    6 ar
     9    6    7 1
    10    7    8 3
    11    9   10 1
    12   10   15 ar
    13   10   11 ar
    14   11   18 1
    15   11   12 ar
    16   12   13 ar
    17   13   14 ar
    18   14   15 ar
    19   14   17 1
    20   15   16 1
    21   18   19 2
    22   18   20 am
    23   20   21 1
    24   21   22 1
    25   22   23 1
    26   23   24 1
    27    1   26 1
    28    4   27 1
    29    5   28 1
    30    8   29 1
    31    9   30 1
    32   12   31 1
    33   13   32 1
    34   20   33 1
    35   22   34 1
    36   22   35 1
    37   23   36 1
    38   23   37 1
    39   24   38 1
@<TRIPOS>SUBSTRUCTURE
     1 <0>         1 GROUP 0 A     ****
@<TRIPOS>MOLECULE
MiniDrugBank_277
   32    32     1     0     0
SMALL
NO_CHARGES

@<TRIPOS>ATOM
      1 N1          3.0765    3.7091   -3.2852 N.3       1 <0>        0.00000
      2 C1          1.6911    3.9176   -2.9455 C.3       1 <0>        0.00000
      3 C2          1.0108    2.6226   -2.4946 C.3       1 <0>        0.00000
      4 S1          1.7701    1.8703   -1.0358 S.3       1 <0>        0.00000
      5 C3          0.6844    0.4327   -0.8778 C.3       1 <0>        0.00000
      6 C4         -0.6230    0.7797   -0.2110 C.3       1 <0>        0.00000
      7 C5         -1.0986   -0.5943    0.2013 C.3       1 <0>        0.00000
      8 O1          0.0865   -1.3138    0.5571 O.3       1 <0>        0.00000
      9 N2          1.2387   -0.6057   -0.0099 N.3       1 <0>        0.00000
     10 C6         -2.0581   -0.5689    1.3761 C.3       1 <0>        0.00000
     11 N3         -3.2509    0.2291    1.0159 N.3       1 <0>        0.00000
     12 C7         -2.5333   -1.9523    1.7448 C.2       1 <0>        0.00000
     13 O2         -1.7031   -2.5106    2.6639 O.3       1 <0>        0.00000
     14 O3         -3.5117   -2.5258    1.2883 O.2       1 <0>        0.00000
     15 C8          1.5168    5.0430   -1.9393 C.2       1 <0>        0.00000
     16 O4          0.3362    5.6951   -2.0643 O.3       1 <0>        0.00000
     17 O5          2.3495    5.3299   -1.0878 O.2       1 <0>        0.00000
     18 H1          3.3122    3.3701   -4.2048 H         1 <0>        0.00000
     19 H2          3.7680    3.7063   -2.5516 H         1 <0>        0.00000
     20 H3          1.2163    4.2623   -3.8720 H         1 <0>        0.00000
     21 H4          1.0497    1.8819   -3.3006 H         1 <0>        0.00000
     22 H5         -0.0437    2.8054   -2.2625 H         1 <0>        0.00000
     23 H6          0.5150    0.0148   -1.8763 H         1 <0>        0.00000
     24 H7         -0.4709    1.4146    0.6721 H         1 <0>        0.00000
     25 H8         -1.3343    1.2790   -0.8764 H         1 <0>        0.00000
     26 H9         -1.5617   -1.1153   -0.6456 H         1 <0>        0.00000
     27 H10         1.6109   -0.1754    0.8365 H         1 <0>        0.00000
     28 H11        -1.6003   -0.1104    2.2596 H         1 <0>        0.00000
     29 H12        -3.9640   -0.2312    0.5101 H         1 <0>        0.00000
     30 H13        -3.1831    1.2097    1.1167 H         1 <0>        0.00000
     31 H14        -0.9734   -1.9043    2.9134 H         1 <0>        0.00000
     32 H15        -0.2065    5.3338   -2.7974 H         1 <0>        0.00000
@<TRIPOS>BOND
     1    1    2 1
     2    2    3 1
     3    3    4 1
     4    4    5 1
     5    5    6 1
     6    6    7 1
     7    7    8 1
     8    8    9 1
     9    5    9 1
    10    7   10 1
    11   10   11 1
    12   10   12 1
    13   12   13 1
    14   12   14 2
    15    2   15 1
    16   15   16 1
    17   15   17 2
    18    1   18 1
    19    1   19 1
    20    2   20 1
    21    3   21 1
    22    3   22 1
    23    5   23 1
    24    6   24 1
    25    6   25 1
    26    7   26 1
    27    9   27 1
    28   10   28 1
    29   11   29 1
    30   11   30 1
    31   13   31 1
    32   16   32 1
@<TRIPOS>SUBSTRUCTURE
     1 <0>         1 GROUP 0 A     ****
@<TRIPOS>MOLECULE
MiniDrugBank_278
   50    55     1     0     0
SMALL
NO_CHARGES

@<TRIPOS>ATOM
      1 O1         -4.3476    2.3436    3.5221 O.2       1 <0>        0.00000
      2 C1         -4.0572    2.5825    2.3532 C.ar      1 <0>        0.00000
      3 N1         -4.7328    3.5033    1.5866 N.am      1 <0>        0.00000
      4 N2         -4.4137    3.7728    0.2809 N.am      1 <0>        0.00000
      5 C2         -3.3873    3.1481   -0.3888 C.ar      1 <0>        0.00000
      6 O2         -3.1059    3.3927   -1.5587 O.2       1 <0>        0.00000
      7 C3         -2.6154    2.1474    0.3723 C.ar      1 <0>        0.00000
      8 C4         -1.5545    1.4717   -0.2419 C.ar      1 <0>        0.00000
      9 C5         -0.8235    0.5246    0.4759 C.ar      1 <0>        0.00000
     10 C6         -1.1479    0.2506    1.8033 C.ar      1 <0>        0.00000
     11 C7         -2.2047    0.9226    2.4185 C.ar      1 <0>        0.00000
     12 C8         -2.9400    1.8732    1.7008 C.ar      1 <0>        0.00000
     13 N3          0.2570   -0.1632   -0.1488 N.ar      1 <0>        0.00000
     14 N4          1.5207   -0.1000    0.3065 N.ar      1 <0>        0.00000
     15 C9          2.1486   -0.8902   -0.5927 C.ar      1 <0>        0.00000
     16 C10         3.5428   -1.0847   -0.4526 C.2       1 <0>        0.00000
     17 C11         4.3502   -1.8498   -1.2649 C.2       1 <0>        0.00000
     18 C12         5.8057   -2.0365   -1.1300 C.ar      1 <0>        0.00000
     19 C13         6.4326   -1.7738    0.0880 C.ar      1 <0>        0.00000
     20 C14         7.8103   -1.9505    0.2158 C.ar      1 <0>        0.00000
     21 C15         8.5612   -2.3900   -0.8745 C.ar      1 <0>        0.00000
     22 C16         7.9343   -2.6528   -2.0926 C.ar      1 <0>        0.00000
     23 C17         6.5566   -2.4761   -2.2203 C.ar      1 <0>        0.00000
     24 N5          1.3804   -1.4679   -1.6078 N.ar      1 <0>        0.00000
     25 N6          0.1317   -0.9838   -1.3095 N.pl3     1 <0>        0.00000
     26 C18        -0.9488   -1.3148   -2.0768 C.ar      1 <0>        0.00000
     27 N7         -2.1775   -0.9027   -1.8691 N.ar      1 <0>        0.00000
     28 C19        -3.0156   -1.4328   -2.8392 C.ar      1 <0>        0.00000
     29 C20        -2.3896   -2.2539   -3.7819 C.ar      1 <0>        0.00000
     30 S1         -0.7065   -2.3466   -3.4194 S.3       1 <0>        0.00000
     31 C21        -3.1044   -2.8638   -4.8254 C.ar      1 <0>        0.00000
     32 C22        -4.4798   -2.6331   -4.9090 C.ar      1 <0>        0.00000
     33 C23        -5.1244   -1.8204   -3.9830 C.ar      1 <0>        0.00000
     34 C24        -4.4065   -1.2162   -2.9468 C.ar      1 <0>        0.00000
     35 H1         -5.5124    4.0304    1.9663 H         1 <0>        0.00000
     36 H2         -4.9616    4.4674   -0.2160 H         1 <0>        0.00000
     37 H3         -1.2875    1.6725   -1.2763 H         1 <0>        0.00000
     38 H4         -0.5806   -0.4861    2.3660 H         1 <0>        0.00000
     39 H5         -2.4388    0.6916    3.4542 H         1 <0>        0.00000
     40 H6          4.0613   -0.5492    0.3747 H         1 <0>        0.00000
     41 H7          3.8984   -2.3534   -2.1161 H         1 <0>        0.00000
     42 H8          5.8608   -1.4307    0.9470 H         1 <0>        0.00000
     43 H9          8.2985   -1.7458    1.1641 H         1 <0>        0.00000
     44 H10         9.6339   -2.5276   -0.7750 H         1 <0>        0.00000
     45 H11         8.5190   -2.9952   -2.9414 H         1 <0>        0.00000
     46 H12         6.0823   -2.6851   -3.1763 H         1 <0>        0.00000
     47 H13        -2.6071   -3.4976   -5.5531 H         1 <0>        0.00000
     48 H14        -5.0519   -3.0950   -5.7096 H         1 <0>        0.00000
     49 H15        -6.1951   -1.6534   -4.0630 H         1 <0>        0.00000
     50 H16        -4.9202   -0.5824   -2.2292 H         1 <0>        0.00000
@<TRIPOS>BOND
     1    1    2 2
     2    2    3 am
     3    3    4 1
     4    4    5 am
     5    5    6 2
     6    5    7 1
     7    7    8 ar
     8    8    9 ar
     9    9   10 ar
    10   10   11 ar
    11   11   12 ar
    12    2   12 1
    13    7   12 ar
    14    9   13 1
    15   13   14 2
    16   14   15 1
    17   15   16 1
    18   16   17 2
    19   17   18 1
    20   18   19 ar
    21   19   20 ar
    22   20   21 ar
    23   21   22 ar
    24   22   23 ar
    25   18   23 ar
    26   15   24 2
    27   24   25 1
    28   13   25 1
    29   25   26 1
    30   26   27 2
    31   27   28 1
    32   28   29 ar
    33   29   30 1
    34   26   30 1
    35   29   31 ar
    36   31   32 ar
    37   32   33 ar
    38   33   34 ar
    39   28   34 ar
    40    3   35 1
    41    4   36 1
    42    8   37 1
    43   10   38 1
    44   11   39 1
    45   16   40 1
    46   17   41 1
    47   19   42 1
    48   20   43 1
    49   21   44 1
    50   22   45 1
    51   23   46 1
    52   31   47 1
    53   32   48 1
    54   33   49 1
    55   34   50 1
@<TRIPOS>SUBSTRUCTURE
     1 <0>         1 GROUP 0 A     ****
@<TRIPOS>MOLECULE
MiniDrugBank_279
   60    65     1     0     0
SMALL
NO_CHARGES

@<TRIPOS>ATOM
      1 C1         -5.2085   -1.4513    1.3367 C.3       1 <0>        0.00000
      2 C2         -3.7370   -1.3992    1.0911 C.ar      1 <0>        0.00000
      3 C3         -2.9585   -2.5540    1.2985 C.ar      1 <0>        0.00000
      4 C4         -1.5785   -2.5372    1.0796 C.ar      1 <0>        0.00000
      5 C5         -1.0163   -1.3503    0.6510 C.ar      1 <0>        0.00000
      6 C6          0.3896   -1.0654    0.3643 C.2       1 <0>        0.00000
      7 O1          1.2976   -1.8577    0.5322 O.2       1 <0>        0.00000
      8 C7          0.4957    0.3746   -0.1402 C.3       1 <0>        0.00000
      9 O2          1.3288    1.1046    0.7401 O.3       1 <0>        0.00000
     10 C8          2.5899    1.3787    0.1147 C.3       1 <0>        0.00000
     11 C9          2.5091    0.9380   -1.3476 C.3       1 <0>        0.00000
     12 C10         1.0888    0.4301   -1.5447 C.3       1 <0>        0.00000
     13 C11         0.3403    1.3316   -2.4835 C.2       1 <0>        0.00000
     14 O3         -0.5929    0.6309   -3.1691 O.3       1 <0>        0.00000
     15 O4          0.5419    2.5270   -2.6098 O.2       1 <0>        0.00000
     16 C12         3.5024   -0.1586   -1.6039 C.2       1 <0>        0.00000
     17 O5          3.2019   -1.3394   -1.4344 O.2       1 <0>        0.00000
     18 N1          4.7246    0.3533   -2.0283 N.am      1 <0>        0.00000
     19 C13         5.8956   -0.3668   -2.3640 C.ar      1 <0>        0.00000
     20 C14         5.9046   -1.7594   -2.2853 C.ar      1 <0>        0.00000
     21 C15         7.0592   -2.4691   -2.6151 C.ar      1 <0>        0.00000
     22 C16         8.2049   -1.7863   -3.0235 C.ar      1 <0>        0.00000
     23 C17         8.1959   -0.3936   -3.1022 C.ar      1 <0>        0.00000
     24 C18         7.0413    0.3161   -2.7725 C.ar      1 <0>        0.00000
     25 C19         9.3926   -2.5171   -3.3662 C.ar      1 <0>        0.00000
     26 C20         9.7153   -3.7301   -2.7914 C.ar      1 <0>        0.00000
     27 S1         11.1998   -4.2324   -3.4902 S.3       1 <0>        0.00000
     28 N2         11.3130   -2.8735   -4.4632 N.ar      1 <0>        0.00000
     29 N3         10.2953   -2.0424   -4.3047 N.ar      1 <0>        0.00000
     30 C21         2.9435    2.8416    0.2668 C.ar      1 <0>        0.00000
     31 C22         4.2812    3.2315    0.3304 C.ar      1 <0>        0.00000
     32 C23         4.6087    4.5801    0.4705 C.ar      1 <0>        0.00000
     33 C24         3.5984    5.5389    0.5469 C.ar      1 <0>        0.00000
     34 Cl1         4.0683    7.1935    0.7200 Cl        1 <0>        0.00000
     35 C25         2.2607    5.1490    0.4832 C.ar      1 <0>        0.00000
     36 Cl2         0.9642    6.2893    0.5724 Cl        1 <0>        0.00000
     37 C26         1.9332    3.8003    0.3431 C.ar      1 <0>        0.00000
     38 C27        -0.9330    0.8994    0.0152 C.2       1 <0>        0.00000
     39 O6         -1.3276    2.0398   -0.1401 O.2       1 <0>        0.00000
     40 C28        -1.7850   -0.2098    0.4454 C.ar      1 <0>        0.00000
     41 C29        -3.1497   -0.2062    0.6611 C.ar      1 <0>        0.00000
     42 H1         -5.4243   -1.1854    2.3760 H         1 <0>        0.00000
     43 H2         -5.7398   -0.7580    0.6763 H         1 <0>        0.00000
     44 H3         -5.6026   -2.4536    1.1384 H         1 <0>        0.00000
     45 H4         -3.4304   -3.4743    1.6350 H         1 <0>        0.00000
     46 H5         -0.9812   -3.4270    1.2428 H         1 <0>        0.00000
     47 H6          3.3679    0.7992    0.6759 H         1 <0>        0.00000
     48 H7          2.7778    1.7486   -2.0429 H         1 <0>        0.00000
     49 H8          1.0667   -0.5616   -2.0218 H         1 <0>        0.00000
     50 H9         -0.5913   -0.3175   -2.9183 H         1 <0>        0.00000
     51 H10         4.7835    1.3665   -2.1066 H         1 <0>        0.00000
     52 H11         5.0176   -2.3019   -1.9686 H         1 <0>        0.00000
     53 H12         7.0496   -3.5547   -2.5492 H         1 <0>        0.00000
     54 H13         9.0805    0.1532   -3.4199 H         1 <0>        0.00000
     55 H14         7.0457    1.4014   -2.8377 H         1 <0>        0.00000
     56 H15         9.1910   -4.3110   -2.0453 H         1 <0>        0.00000
     57 H16         5.0748    2.4910    0.2713 H         1 <0>        0.00000
     58 H17         5.6566    4.8658    0.5185 H         1 <0>        0.00000
     59 H18         0.8925    3.4877    0.2931 H         1 <0>        0.00000
     60 H19        -3.7436    0.6878    0.5040 H         1 <0>        0.00000
@<TRIPOS>BOND
     1    1    2 1
     2    2    3 ar
     3    3    4 ar
     4    4    5 ar
     5    5    6 1
     6    6    7 2
     7    6    8 1
     8    8    9 1
     9    9   10 1
    10   10   11 1
    11   11   12 1
    12    8   12 1
    13   12   13 1
    14   13   14 1
    15   13   15 2
    16   11   16 1
    17   16   17 2
    18   16   18 am
    19   18   19 1
    20   19   20 ar
    21   20   21 ar
    22   21   22 ar
    23   22   23 ar
    24   23   24 ar
    25   19   24 ar
    26   22   25 1
    27   25   26 2
    28   26   27 1
    29   27   28 1
    30   28   29 2
    31   25   29 1
    32   10   30 1
    33   30   31 ar
    34   31   32 ar
    35   32   33 ar
    36   33   34 1
    37   33   35 ar
    38   35   36 1
    39   35   37 ar
    40   30   37 ar
    41    8   38 1
    42   38   39 2
    43   38   40 1
    44    5   40 ar
    45   40   41 ar
    46    2   41 ar
    47    1   42 1
    48    1   43 1
    49    1   44 1
    50    3   45 1
    51    4   46 1
    52   10   47 1
    53   11   48 1
    54   12   49 1
    55   14   50 1
    56   18   51 1
    57   20   52 1
    58   21   53 1
    59   23   54 1
    60   24   55 1
    61   26   56 1
    62   31   57 1
    63   32   58 1
    64   37   59 1
    65   41   60 1
@<TRIPOS>SUBSTRUCTURE
     1 <0>         1 GROUP 0 A     ****
@<TRIPOS>MOLECULE
MiniDrugBank_280
   81    84     1     0     0
SMALL
NO_CHARGES

@<TRIPOS>ATOM
      1 C1         -5.6683    5.4340   -2.1541 C.3       1 <0>        0.00000
      2 C2         -4.3204    4.9708   -2.5978 C.2       1 <0>        0.00000
      3 O1         -4.0859    4.8527   -3.7948 O.2       1 <0>        0.00000
      4 N1         -3.4447    4.7124   -1.5606 N.am      1 <0>        0.00000
      5 C3         -2.0937    4.2540   -1.7655 C.3       1 <0>        0.00000
      6 C4         -1.0935    5.4134   -1.8394 C.3       1 <0>        0.00000
      7 C5          0.1947    5.0300   -2.5258 C.ar      1 <0>        0.00000
      8 C6          0.3234    5.1875   -3.9057 C.ar      1 <0>        0.00000
      9 C7          1.5139    4.8329   -4.5401 C.ar      1 <0>        0.00000
     10 C8          2.5759    4.3209   -3.7946 C.ar      1 <0>        0.00000
     11 O2          3.7337    3.9782   -4.4238 O.3       1 <0>        0.00000
     12 C9          3.6510    2.9727   -5.4324 C.3       1 <0>        0.00000
     13 C10         4.9457    2.2189   -5.4889 C.2       1 <0>        0.00000
     14 O3          4.8762    1.2599   -6.4462 O.3       1 <0>        0.00000
     15 O4          5.9286    2.4169   -4.7905 O.2       1 <0>        0.00000
     16 C11         2.4472    4.1634   -2.4146 C.ar      1 <0>        0.00000
     17 C12         1.2567    4.5180   -1.7802 C.ar      1 <0>        0.00000
     18 P1          3.7809    3.5157   -1.4507 P.3       1 <0>        0.00000
     19 O5          4.0586    2.0382   -2.0560 O.3       1 <0>        0.00000
     20 O6          5.0923    4.3269   -1.9493 O.3       1 <0>        0.00000
     21 O7          3.6271    3.5155    0.0417 O.2       1 <0>        0.00000
     22 C13        -1.7493    3.3291   -0.6035 C.2       1 <0>        0.00000
     23 O8         -2.1644    3.5076    0.5396 O.2       1 <0>        0.00000
     24 N2         -0.9661    2.2567   -1.0076 N.am      1 <0>        0.00000
     25 C14        -0.5394    1.2048   -0.1138 C.3       1 <0>        0.00000
     26 C15         0.8150    1.5524    0.5064 C.3       1 <0>        0.00000
     27 C16         1.0670    0.8575    1.8433 C.3       1 <0>        0.00000
     28 C17         1.1337   -0.6660    1.7670 C.3       1 <0>        0.00000
     29 C18        -0.1507   -1.3005    1.2451 C.3       1 <0>        0.00000
     30 N3         -0.2384   -1.2514   -0.2154 N.am      1 <0>        0.00000
     31 C19        -0.0652   -2.5174   -0.9166 C.3       1 <0>        0.00000
     32 C20         1.3705   -2.7588   -1.2517 C.ar      1 <0>        0.00000
     33 C21         2.1920   -3.4363   -0.3508 C.ar      1 <0>        0.00000
     34 C22         3.5328   -3.6614   -0.6630 C.ar      1 <0>        0.00000
     35 C23         4.0519   -3.2092   -1.8761 C.ar      1 <0>        0.00000
     36 C24         3.2303   -2.5318   -2.7771 C.ar      1 <0>        0.00000
     37 C25         1.8896   -2.3066   -2.4649 C.ar      1 <0>        0.00000
     38 C26         5.4423   -3.4431   -2.2005 C.ar      1 <0>        0.00000
     39 C27         6.1303   -2.5416   -3.0127 C.ar      1 <0>        0.00000
     40 C28         7.4708   -2.7673   -3.3254 C.ar      1 <0>        0.00000
     41 C29         8.1233   -3.8944   -2.8259 C.ar      1 <0>        0.00000
     42 C30         7.4353   -4.7958   -2.0136 C.ar      1 <0>        0.00000
     43 C31         6.0949   -4.5702   -1.7009 C.ar      1 <0>        0.00000
     44 C32        -0.4696   -0.0798   -0.9401 C.2       1 <0>        0.00000
     45 O9         -0.5865   -0.0562   -2.1683 O.2       1 <0>        0.00000
     46 H1         -6.3693    4.5985   -1.9968 H         1 <0>        0.00000
     47 H2         -5.6332    5.9696   -1.1919 H         1 <0>        0.00000
     48 H3         -6.1835    6.1178   -2.8475 H         1 <0>        0.00000
     49 H4         -3.7686    4.8522   -0.6082 H         1 <0>        0.00000
     50 H5         -2.0976    3.6704   -2.6936 H         1 <0>        0.00000
     51 H6         -0.8764    5.7933   -0.8319 H         1 <0>        0.00000
     52 H7         -1.5310    6.2635   -2.3795 H         1 <0>        0.00000
     53 H8         -0.4987    5.5851   -4.4951 H         1 <0>        0.00000
     54 H9          1.6066    4.9577   -5.6157 H         1 <0>        0.00000
     55 H10         2.8409    2.2978   -5.1597 H         1 <0>        0.00000
     56 H11         3.4467    3.4590   -6.3854 H         1 <0>        0.00000
     57 H12         4.0058    1.2570   -6.8990 H         1 <0>        0.00000
     58 H13         1.1601    4.3935   -0.7047 H         1 <0>        0.00000
     59 H14         4.8573    1.5537   -1.7568 H         1 <0>        0.00000
     60 H15         5.9731    4.0244   -1.6416 H         1 <0>        0.00000
     61 H16        -0.6785    2.2091   -1.9806 H         1 <0>        0.00000
     62 H17        -1.3277    1.1271    0.6385 H         1 <0>        0.00000
     63 H18         1.6291    1.3150   -0.1906 H         1 <0>        0.00000
     64 H19         0.8723    2.6338    0.6873 H         1 <0>        0.00000
     65 H20         2.0163    1.2241    2.2531 H         1 <0>        0.00000
     66 H21         0.2889    1.1527    2.5583 H         1 <0>        0.00000
     67 H22         1.9897   -0.9725    1.1535 H         1 <0>        0.00000
     68 H23         1.3187   -1.0410    2.7812 H         1 <0>        0.00000
     69 H24        -0.1855   -2.3519    1.5549 H         1 <0>        0.00000
     70 H25        -1.0341   -0.8156    1.6738 H         1 <0>        0.00000
     71 H26        -0.6827   -2.4704   -1.8128 H         1 <0>        0.00000
     72 H27        -0.4677   -3.2939   -0.2677 H         1 <0>        0.00000
     73 H28         1.7964   -3.7926    0.5967 H         1 <0>        0.00000
     74 H29         4.1600   -4.1906    0.0506 H         1 <0>        0.00000
     75 H30         3.6211   -2.1727   -3.7261 H         1 <0>        0.00000
     76 H31         1.2563   -1.7785   -3.1729 H         1 <0>        0.00000
     77 H32         5.6358   -1.6578   -3.4087 H         1 <0>        0.00000
     78 H33         8.0072   -2.0651   -3.9570 H         1 <0>        0.00000
     79 H34         9.1671   -4.0705   -3.0692 H         1 <0>        0.00000
     80 H35         7.9428   -5.6740   -1.6252 H         1 <0>        0.00000
     81 H36         5.5718   -5.2825   -1.0673 H         1 <0>        0.00000
@<TRIPOS>BOND
     1    1    2 1
     2    2    3 2
     3    2    4 am
     4    4    5 1
     5    5    6 1
     6    6    7 1
     7    7    8 ar
     8    8    9 ar
     9    9   10 ar
    10   10   11 1
    11   11   12 1
    12   12   13 1
    13   13   14 1
    14   13   15 2
    15   10   16 ar
    16   16   17 ar
    17    7   17 ar
    18   16   18 1
    19   18   19 1
    20   18   20 1
    21   18   21 2
    22    5   22 1
    23   22   23 2
    24   22   24 am
    25   24   25 1
    26   25   26 1
    27   26   27 1
    28   27   28 1
    29   28   29 1
    30   29   30 1
    31   30   31 1
    32   31   32 1
    33   32   33 ar
    34   33   34 ar
    35   34   35 ar
    36   35   36 ar
    37   36   37 ar
    38   32   37 ar
    39   35   38 1
    40   38   39 ar
    41   39   40 ar
    42   40   41 ar
    43   41   42 ar
    44   42   43 ar
    45   38   43 ar
    46   30   44 am
    47   25   44 1
    48   44   45 2
    49    1   46 1
    50    1   47 1
    51    1   48 1
    52    4   49 1
    53    5   50 1
    54    6   51 1
    55    6   52 1
    56    8   53 1
    57    9   54 1
    58   12   55 1
    59   12   56 1
    60   14   57 1
    61   17   58 1
    62   19   59 1
    63   20   60 1
    64   24   61 1
    65   25   62 1
    66   26   63 1
    67   26   64 1
    68   27   65 1
    69   27   66 1
    70   28   67 1
    71   28   68 1
    72   29   69 1
    73   29   70 1
    74   31   71 1
    75   31   72 1
    76   33   73 1
    77   34   74 1
    78   36   75 1
    79   37   76 1
    80   39   77 1
    81   40   78 1
    82   41   79 1
    83   42   80 1
    84   43   81 1
@<TRIPOS>SUBSTRUCTURE
     1 <0>         1 GROUP 0 A     ****
@<TRIPOS>MOLECULE
MiniDrugBank_281
   50    50     1     0     0
SMALL
NO_CHARGES

@<TRIPOS>ATOM
      1 N1          1.5488   -5.4217    2.9009 N.3       1 <0>        0.00000
      2 C1          0.6113   -4.3277    2.8869 C.3       1 <0>        0.00000
      3 C2         -0.3945   -4.4349    1.7376 C.3       1 <0>        0.00000
      4 C3          0.2606   -4.4403    0.3551 C.3       1 <0>        0.00000
      5 C4          1.0691   -3.1878    0.0598 C.2       1 <0>        0.00000
      6 O1          2.2757   -3.2025   -0.1683 O.2       1 <0>        0.00000
      7 N2          0.2811   -2.0471    0.1091 N.am      1 <0>        0.00000
      8 C5          0.8128   -0.7219   -0.1087 C.3       1 <0>        0.00000
      9 C6          1.3252   -0.0838    1.1833 C.3       1 <0>        0.00000
     10 S1          0.0469    0.1032    2.4693 S.3       1 <0>        0.00000
     11 C7          1.0763    0.8639    3.7438 C.3       1 <0>        0.00000
     12 C8          0.3042    1.1667    5.0018 C.ar      1 <0>        0.00000
     13 C9         -0.3271    2.4015    5.1516 C.ar      1 <0>        0.00000
     14 C10        -1.0432    2.6820    6.3152 C.ar      1 <0>        0.00000
     15 C11        -1.1281    1.7278    7.3291 C.ar      1 <0>        0.00000
     16 C12        -0.4968    0.4930    7.1793 C.ar      1 <0>        0.00000
     17 I1         -0.6238   -0.9282    8.6898 I         1 <0>        0.00000
     18 C13         0.2193    0.2125    6.0156 C.ar      1 <0>        0.00000
     19 C14        -0.2380    0.1184   -0.8292 C.2       1 <0>        0.00000
     20 O2         -1.3806   -0.2787   -1.0488 O.2       1 <0>        0.00000
     21 N3          0.2591    1.3536   -1.2201 N.am      1 <0>        0.00000
     22 C15        -0.5352    2.3200   -1.9418 C.3       1 <0>        0.00000
     23 C16        -1.2459    3.2220   -0.9657 C.2       1 <0>        0.00000
     24 O3         -2.0019    4.1427   -1.6180 O.3       1 <0>        0.00000
     25 O4         -1.1662    3.1522    0.2516 O.2       1 <0>        0.00000
     26 C17        -0.1096   -4.3603    4.2199 C.2       1 <0>        0.00000
     27 O5         -0.4986   -3.1198    4.6159 O.3       1 <0>        0.00000
     28 O6         -0.3639   -5.3719    4.8608 O.2       1 <0>        0.00000
     29 H1          2.3630   -5.3797    2.3081 H         1 <0>        0.00000
     30 H2          1.2841   -6.2910    3.3373 H         1 <0>        0.00000
     31 H3          1.2131   -3.4154    2.8258 H         1 <0>        0.00000
     32 H4         -0.9754   -5.3603    1.8487 H         1 <0>        0.00000
     33 H5         -1.1174   -3.6114    1.7986 H         1 <0>        0.00000
     34 H6          0.8992   -5.3224    0.2325 H         1 <0>        0.00000
     35 H7         -0.5261   -4.4984   -0.4072 H         1 <0>        0.00000
     36 H8         -0.7102   -2.1479    0.3065 H         1 <0>        0.00000
     37 H9          1.6556   -0.8546   -0.7969 H         1 <0>        0.00000
     38 H10         2.1348   -0.6840    1.6112 H         1 <0>        0.00000
     39 H11         1.7281    0.9131    0.9742 H         1 <0>        0.00000
     40 H12         1.5208    1.7863    3.3468 H         1 <0>        0.00000
     41 H13         1.9154    0.1944    3.9755 H         1 <0>        0.00000
     42 H14        -0.2670    3.1507    4.3669 H         1 <0>        0.00000
     43 H15        -1.5349    3.6436    6.4316 H         1 <0>        0.00000
     44 H16        -1.6914    1.9674    8.2275 H         1 <0>        0.00000
     45 H17         0.7151   -0.7475    5.8878 H         1 <0>        0.00000
     46 H18         1.2044    1.6175   -0.9586 H         1 <0>        0.00000
     47 H19        -1.2916    1.8088   -2.5597 H         1 <0>        0.00000
     48 H20         0.1064    2.9376   -2.5916 H         1 <0>        0.00000
     49 H21        -1.9399    4.0430   -2.5920 H         1 <0>        0.00000
     50 H22        -0.2350   -2.3880    4.0180 H         1 <0>        0.00000
@<TRIPOS>BOND
     1    1    2 1
     2    2    3 1
     3    3    4 1
     4    4    5 1
     5    5    6 2
     6    5    7 am
     7    7    8 1
     8    8    9 1
     9    9   10 1
    10   10   11 1
    11   11   12 1
    12   12   13 ar
    13   13   14 ar
    14   14   15 ar
    15   15   16 ar
    16   16   17 1
    17   16   18 ar
    18   12   18 ar
    19    8   19 1
    20   19   20 2
    21   19   21 am
    22   21   22 1
    23   22   23 1
    24   23   24 1
    25   23   25 2
    26    2   26 1
    27   26   27 1
    28   26   28 2
    29    1   29 1
    30    1   30 1
    31    2   31 1
    32    3   32 1
    33    3   33 1
    34    4   34 1
    35    4   35 1
    36    7   36 1
    37    8   37 1
    38    9   38 1
    39    9   39 1
    40   11   40 1
    41   11   41 1
    42   13   42 1
    43   14   43 1
    44   15   44 1
    45   18   45 1
    46   21   46 1
    47   22   47 1
    48   22   48 1
    49   24   49 1
    50   27   50 1
@<TRIPOS>SUBSTRUCTURE
     1 <0>         1 GROUP 0 A     ****
@<TRIPOS>MOLECULE
MiniDrugBank_282
   15    14     1     0     0
SMALL
NO_CHARGES

@<TRIPOS>ATOM
      1 N1          3.0671   -1.3858   -0.5167 N.3       1 <0>        0.00000
      2 C1          1.6646   -1.1642   -0.7661 C.3       1 <0>        0.00000
      3 C2          1.0762   -0.1070    0.1717 C.3       1 <0>        0.00000
      4 S1          1.8729    1.5272    0.0287 S.3       1 <0>        0.00000
      5 O1          0.9628    2.3175    1.1688 O.3       1 <0>        0.00000
      6 C3          1.3901   -0.8567   -2.2288 C.2       1 <0>        0.00000
      7 O2          0.1660   -1.2644   -2.6412 O.3       1 <0>        0.00000
      8 O3          2.1850   -0.2851   -2.9651 O.2       1 <0>        0.00000
      9 H1          3.3423   -2.0155    0.2208 H         1 <0>        0.00000
     10 H2          3.7448   -0.7671   -0.9339 H         1 <0>        0.00000
     11 H3          1.1803   -2.1267   -0.5620 H         1 <0>        0.00000
     12 H4          1.1837   -0.4318    1.2122 H         1 <0>        0.00000
     13 H5          0.0074    0.0267   -0.0255 H         1 <0>        0.00000
     14 H6          0.0091    2.3008    0.9194 H         1 <0>        0.00000
     15 H7         -0.3361   -1.7031   -1.9217 H         1 <0>        0.00000
@<TRIPOS>BOND
     1    1    2 1
     2    2    3 1
     3    3    4 1
     4    4    5 1
     5    2    6 1
     6    6    7 1
     7    6    8 2
     8    1    9 1
     9    1   10 1
    10    2   11 1
    11    3   12 1
    12    3   13 1
    13    5   14 1
    14    7   15 1
@<TRIPOS>SUBSTRUCTURE
     1 <0>         1 GROUP 0 A     ****
@<TRIPOS>MOLECULE
MiniDrugBank_283
   62    69     1     0     0
SMALL
NO_CHARGES

@<TRIPOS>ATOM
      1 C1          0.2864    0.9190    4.0274 C.3       1 <0>        0.00000
      2 C2          3.1327    2.5722   -1.0203 C.3       1 <0>        0.00000
      3 C3          2.2566    4.3221    3.0918 C.3       1 <0>        0.00000
      4 C4          2.8367   -3.7489   -2.5927 C.ar      1 <0>        0.00000
      5 C5         -3.8043    3.1109    1.3115 C.ar      1 <0>        0.00000
      6 C6          3.7861   -3.4443   -1.6336 C.ar      1 <0>        0.00000
      7 C7         -2.9066    3.5191    2.2784 C.ar      1 <0>        0.00000
      8 C8          1.5764   -3.1449   -2.5586 C.ar      1 <0>        0.00000
      9 C9         -3.4737    2.0622    0.4563 C.ar      1 <0>        0.00000
     10 C10         3.4988   -2.5311   -0.6209 C.ar      1 <0>        0.00000
     11 C11        -1.6741    2.8772    2.4238 C.ar      1 <0>        0.00000
     12 C12         3.4785    0.5548    1.3051 C.3       1 <0>        0.00000
     13 C13         1.2306   -2.2127   -1.5463 C.ar      1 <0>        0.00000
     14 C14        -2.2261    1.3922    0.5591 C.ar      1 <0>        0.00000
     15 C15         2.8676    1.9500    1.2823 C.3       1 <0>        0.00000
     16 C16         2.2297   -1.9153   -0.5730 C.ar      1 <0>        0.00000
     17 C17        -1.3189    1.7949    1.5863 C.ar      1 <0>        0.00000
     18 C18         2.4524   -0.5596    1.5307 C.3       1 <0>        0.00000
     19 C19         0.0059   -1.4412   -1.2957 C.ar      1 <0>        0.00000
     20 C20        -1.6638    0.3274   -0.2579 C.ar      1 <0>        0.00000
     21 C21        -1.2412   -1.2992   -1.8906 C.ar      1 <0>        0.00000
     22 C22        -2.1128   -0.3638   -1.3807 C.ar      1 <0>        0.00000
     23 C23         0.4895   -0.7444   -0.1132 C.ar      1 <0>        0.00000
     24 C24        -0.4152    0.1957    0.4651 C.ar      1 <0>        0.00000
     25 C25         1.9380    2.0715    2.4931 C.3       1 <0>        0.00000
     26 C26        -1.9525   -1.8756   -2.9981 C.2       1 <0>        0.00000
     27 C27        -3.3540   -0.3437   -2.2277 C.3       1 <0>        0.00000
     28 C28         0.8823    0.9353    2.5983 C.3       1 <0>        0.00000
     29 N1          2.1811    2.2083    0.0182 N.3       1 <0>        0.00000
     30 N2         -3.1411   -1.4155   -3.2534 N.2       1 <0>        0.00000
     31 N3          1.7473   -0.9868    0.3515 N.pl3     1 <0>        0.00000
     32 N4         -0.1696    0.9739    1.5798 N.pl3     1 <0>        0.00000
     33 O1         -1.3711   -2.8582   -3.6875 O.3       1 <0>        0.00000
     34 O2         -3.5418    0.9681   -2.7434 O.3       1 <0>        0.00000
     35 O3          1.3585    3.3674    2.5410 O.3       1 <0>        0.00000
     36 O4          1.5211   -0.3426    2.5653 O.3       1 <0>        0.00000
     37 H1          3.6651    2.6987    1.3668 H         1 <0>        0.00000
     38 H2          3.0158   -1.4399    1.8623 H         1 <0>        0.00000
     39 H3          2.5849    1.9956    3.3778 H         1 <0>        0.00000
     40 H4         -4.2234   -0.6097   -1.6162 H         1 <0>        0.00000
     41 H5         -0.4604    0.1252    4.1233 H         1 <0>        0.00000
     42 H6          1.0714    0.7451    4.7693 H         1 <0>        0.00000
     43 H7         -0.1959    1.8747    4.2536 H         1 <0>        0.00000
     44 H8          2.6083    2.7629   -1.9603 H         1 <0>        0.00000
     45 H9          3.8504    1.7622   -1.1759 H         1 <0>        0.00000
     46 H10         3.6792    3.4744   -0.7329 H         1 <0>        0.00000
     47 H11         1.7778    5.3041    3.1128 H         1 <0>        0.00000
     48 H12         3.1653    4.3608    2.4859 H         1 <0>        0.00000
     49 H13         2.5129    4.0224    4.1108 H         1 <0>        0.00000
     50 H14         3.0707   -4.4592   -3.3810 H         1 <0>        0.00000
     51 H15        -4.7627    3.6113    1.2096 H         1 <0>        0.00000
     52 H16         4.7637   -3.9169   -1.6698 H         1 <0>        0.00000
     53 H17        -3.1606    4.3449    2.9375 H         1 <0>        0.00000
     54 H18         0.8727   -3.4102   -3.3385 H         1 <0>        0.00000
     55 H19        -4.1927    1.7670   -0.3029 H         1 <0>        0.00000
     56 H20         4.2607   -2.3016    0.1187 H         1 <0>        0.00000
     57 H21        -1.0130    3.2451    3.1969 H         1 <0>        0.00000
     58 H22         4.0751    0.3728    0.4029 H         1 <0>        0.00000
     59 H23         4.1847    0.5268    2.1468 H         1 <0>        0.00000
     60 H24         1.5180    2.9690    0.1519 H         1 <0>        0.00000
     61 H25        -1.9337   -3.1834   -4.4200 H         1 <0>        0.00000
     62 H26        -4.3485    0.9435   -3.2828 H         1 <0>        0.00000
@<TRIPOS>BOND
     1    4    6 ar
     2    5    7 ar
     3    4    8 ar
     4    5    9 ar
     5    6   10 ar
     6    7   11 ar
     7    8   13 ar
     8    9   14 ar
     9   12   15 1
    10   10   16 ar
    11   13   16 ar
    12   11   17 ar
    13   14   17 ar
    14   12   18 1
    15   13   19 1
    16   14   20 1
    17   19   21 ar
    18   20   22 ar
    19   21   22 ar
    20   19   23 ar
    21   20   24 ar
    22   23   24 ar
    23   15   25 1
    24   21   26 1
    25   22   27 1
    26    1   28 1
    27   25   28 1
    28    2   29 1
    29   15   29 1
    30   26   30 2
    31   27   30 1
    32   16   31 1
    33   18   31 1
    34   23   31 1
    35   17   32 1
    36   24   32 1
    37   28   32 1
    38   26   33 1
    39   27   34 1
    40    3   35 1
    41   25   35 1
    42   18   36 1
    43   28   36 1
    44   15   37 1
    45   18   38 1
    46   25   39 1
    47   27   40 1
    48    1   41 1
    49    1   42 1
    50    1   43 1
    51    2   44 1
    52    2   45 1
    53    2   46 1
    54    3   47 1
    55    3   48 1
    56    3   49 1
    57    4   50 1
    58    5   51 1
    59    6   52 1
    60    7   53 1
    61    8   54 1
    62    9   55 1
    63   10   56 1
    64   11   57 1
    65   12   58 1
    66   12   59 1
    67   29   60 1
    68   33   61 1
    69   34   62 1
@<TRIPOS>SUBSTRUCTURE
     1 <0>         1 GROUP 0 A     ****
@<TRIPOS>MOLECULE
MiniDrugBank_284
   56    59     1     0     0
SMALL
NO_CHARGES

@<TRIPOS>ATOM
      1 C1          1.6053   -0.5953   -2.1225 C.3       1 <0>        0.00000
      2 C2          1.5130   -1.2934   -0.8055 C.ar      1 <0>        0.00000
      3 C3          2.3228   -2.4024   -0.5685 C.ar      1 <0>        0.00000
      4 C4          2.2818   -3.1064    0.6561 C.ar      1 <0>        0.00000
      5 C5          1.4191   -2.6365    1.6770 C.ar      1 <0>        0.00000
      6 C6          0.5953   -1.5216    1.4029 C.ar      1 <0>        0.00000
      7 C7          0.6421   -0.8571    0.1788 C.ar      1 <0>        0.00000
      8 C8         -0.2542    0.3145   -0.0492 C.3       1 <0>        0.00000
      9 C9         -1.7583    0.0804    0.0504 C.3       1 <0>        0.00000
     10 C10        -1.1405    0.2937   -1.2906 C.3       1 <0>        0.00000
     11 C11         0.2766    1.6252    0.4066 C.ar      1 <0>        0.00000
     12 C12         0.0100    2.0403    1.7013 C.ar      1 <0>        0.00000
     13 C13         0.5152    3.2704    2.1073 C.ar      1 <0>        0.00000
     14 C14         1.2611    4.0368    1.2187 C.ar      1 <0>        0.00000
     15 C15         1.4718    3.5323   -0.0544 C.ar      1 <0>        0.00000
     16 N1          0.9971    2.3420   -0.4849 N.ar      1 <0>        0.00000
     17 C16         1.8036    5.3247    1.6141 C.2       1 <0>        0.00000
     18 O1          2.5036    5.9265    0.6126 O.3       1 <0>        0.00000
     19 O2          1.6687    5.8501    2.7253 O.2       1 <0>        0.00000
     20 C17         1.3199   -3.3185    3.0476 C.3       1 <0>        0.00000
     21 C18         1.3436   -2.2924    4.2057 C.3       1 <0>        0.00000
     22 C19        -0.0122   -4.0977    3.1173 C.3       1 <0>        0.00000
     23 C20         2.5043   -4.2796    3.2925 C.3       1 <0>        0.00000
     24 C21         2.7865   -5.1550    2.0832 C.3       1 <0>        0.00000
     25 C22         3.1976   -4.3219    0.8490 C.3       1 <0>        0.00000
     26 C23         4.6515   -3.8252    1.0111 C.3       1 <0>        0.00000
     27 C24         3.1447   -5.2822   -0.3632 C.3       1 <0>        0.00000
     28 H1          0.8962   -1.0356   -2.8302 H         1 <0>        0.00000
     29 H2          1.3828    0.4716   -2.0160 H         1 <0>        0.00000
     30 H3          2.6156   -0.6754   -2.5374 H         1 <0>        0.00000
     31 H4          2.9944   -2.7255   -1.3607 H         1 <0>        0.00000
     32 H5         -0.0946   -1.1550    2.1598 H         1 <0>        0.00000
     33 H6         -2.1184   -0.9151    0.2853 H         1 <0>        0.00000
     34 H7         -2.3806    0.8735    0.4496 H         1 <0>        0.00000
     35 H8         -1.0845   -0.5583   -1.9590 H         1 <0>        0.00000
     36 H9         -1.3458    1.2304   -1.7964 H         1 <0>        0.00000
     37 H10        -0.5729    1.4339    2.3867 H         1 <0>        0.00000
     38 H11         0.3226    3.6230    3.1169 H         1 <0>        0.00000
     39 H12         2.0458    4.0841   -0.7927 H         1 <0>        0.00000
     40 H13         2.8751    6.7972    0.8701 H         1 <0>        0.00000
     41 H14         1.2714   -2.8229    5.1471 H         1 <0>        0.00000
     42 H15         0.5034   -1.6182    4.0954 H         1 <0>        0.00000
     43 H16         2.2723   -1.7367    4.1643 H         1 <0>        0.00000
     44 H17        -0.0844   -4.5798    4.0834 H         1 <0>        0.00000
     45 H18        -0.0242   -4.8394    2.3295 H         1 <0>        0.00000
     46 H19        -0.8307   -3.4020    2.9863 H         1 <0>        0.00000
     47 H20         3.4079   -3.7094    3.5443 H         1 <0>        0.00000
     48 H21         2.3029   -4.9184    4.1618 H         1 <0>        0.00000
     49 H22         3.5735   -5.8771    2.3349 H         1 <0>        0.00000
     50 H23         1.8946   -5.7534    1.8557 H         1 <0>        0.00000
     51 H24         4.9213   -3.2447    0.1386 H         1 <0>        0.00000
     52 H25         5.3048   -4.6828    1.1041 H         1 <0>        0.00000
     53 H26         4.7135   -3.2116    1.9003 H         1 <0>        0.00000
     54 H27         3.4271   -4.7376   -1.2556 H         1 <0>        0.00000
     55 H28         2.1363   -5.6634   -0.4657 H         1 <0>        0.00000
     56 H29         3.8345   -6.0997   -0.1942 H         1 <0>        0.00000
@<TRIPOS>BOND
     1    1    2 1
     2    2    3 ar
     3    3    4 ar
     4    4    5 ar
     5    5    6 ar
     6    6    7 ar
     7    2    7 ar
     8    7    8 1
     9    8    9 1
    10    9   10 1
    11    8   10 1
    12    8   11 1
    13   11   12 ar
    14   12   13 ar
    15   13   14 ar
    16   14   15 ar
    17   15   16 ar
    18   11   16 ar
    19   14   17 1
    20   17   18 1
    21   17   19 2
    22    5   20 1
    23   20   21 1
    24   20   22 1
    25   20   23 1
    26   23   24 1
    27   24   25 1
    28    4   25 1
    29   25   26 1
    30   25   27 1
    31    1   28 1
    32    1   29 1
    33    1   30 1
    34    3   31 1
    35    6   32 1
    36    9   33 1
    37    9   34 1
    38   10   35 1
    39   10   36 1
    40   12   37 1
    41   13   38 1
    42   15   39 1
    43   18   40 1
    44   21   41 1
    45   21   42 1
    46   21   43 1
    47   22   44 1
    48   22   45 1
    49   22   46 1
    50   23   47 1
    51   23   48 1
    52   24   49 1
    53   24   50 1
    54   26   51 1
    55   26   52 1
    56   26   53 1
    57   27   54 1
    58   27   55 1
    59   27   56 1
@<TRIPOS>SUBSTRUCTURE
     1 <0>         1 GROUP 0 A     ****
@<TRIPOS>MOLECULE
MiniDrugBank_285
   36    37     1     0     0
SMALL
NO_CHARGES

@<TRIPOS>ATOM
      1 N1         -4.8984    2.1739    1.6748 N.am      1 <0>        0.00000
      2 C1         -5.2254    0.9578    1.1292 C.2       1 <0>        0.00000
      3 O1         -6.2996    0.3843    1.2680 O.2       1 <0>        0.00000
      4 C2         -4.1517    0.3773    0.3386 C.2       1 <0>        0.00000
      5 C3         -3.1880    0.9925   -0.3680 C.2       1 <0>        0.00000
      6 O2         -2.8783    2.1900   -0.5926 O.3       1 <0>        0.00000
      7 N2         -2.3874    0.0101   -0.9585 N.pl3     1 <0>        0.00000
      8 C4         -2.8657   -1.3165   -0.6102 C.3       1 <0>        0.00000
      9 N3         -4.0645   -1.0441    0.2711 N.4       1 <0>        0.00000
     10 C5         -1.2372    0.1506   -1.8058 C.3       1 <0>        0.00000
     11 O3         -1.0387   -1.0743   -2.5303 O.3       1 <0>        0.00000
     12 C6          0.3102   -1.5176   -2.3127 C.3       1 <0>        0.00000
     13 C7          0.8608   -2.1300   -3.5879 C.3       1 <0>        0.00000
     14 O4          0.0492   -3.2342   -3.9538 O.3       1 <0>        0.00000
     15 P1          0.4325   -4.0855   -5.3171 P.3       1 <0>        0.00000
     16 O5         -0.6413   -5.1677   -5.3775 O.3       1 <0>        0.00000
     17 O6          1.8377   -4.6203   -5.0569 O.3       1 <0>        0.00000
     18 O7          0.3475   -3.0642   -6.4475 O.2       1 <0>        0.00000
     19 C8          1.0771   -0.2902   -1.8545 C.3       1 <0>        0.00000
     20 O8          2.2143   -0.6521   -1.0952 O.3       1 <0>        0.00000
     21 C9          0.0348    0.4140   -1.0152 C.3       1 <0>        0.00000
     22 O9          0.3140    1.7990   -0.9216 O.3       1 <0>        0.00000
     23 H1         -5.5643    2.6817    2.2478 H         1 <0>        0.00000
     24 H2         -3.9950    2.6157    1.5348 H         1 <0>        0.00000
     25 H3         -3.2148   -1.8815   -1.4801 H         1 <0>        0.00000
     26 H4         -2.1411   -1.8847   -0.0187 H         1 <0>        0.00000
     27 H5         -4.9162   -1.4570   -0.1330 H         1 <0>        0.00000
     28 H6         -3.9344   -1.4603    1.2034 H         1 <0>        0.00000
     29 H7         -1.4345    0.9369   -2.5441 H         1 <0>        0.00000
     30 H8          0.2914   -2.2849   -1.5289 H         1 <0>        0.00000
     31 H9          1.8845   -2.4784   -3.4306 H         1 <0>        0.00000
     32 H10         0.8488   -1.3965   -4.3977 H         1 <0>        0.00000
     33 H11         1.3995    0.3359   -2.6952 H         1 <0>        0.00000
     34 H12         2.6590    0.1727   -0.8336 H         1 <0>        0.00000
     35 H13         0.0022    0.0005    0.0008 H         1 <0>        0.00000
     36 H14        -0.3855    2.1944   -0.3740 H         1 <0>        0.00000
@<TRIPOS>BOND
     1    1    2 am
     2    2    3 2
     3    2    4 1
     4    4    5 2
     5    5    6 1
     6    5    7 1
     7    7    8 1
     8    8    9 1
     9    4    9 1
    10    7   10 1
    11   10   11 1
    12   11   12 1
    13   12   13 1
    14   13   14 1
    15   14   15 1
    16   15   16 1
    17   15   17 1
    18   15   18 2
    19   12   19 1
    20   19   20 1
    21   19   21 1
    22   10   21 1
    23   21   22 1
    24    1   23 1
    25    1   24 1
    26    8   25 1
    27    8   26 1
    28    9   27 1
    29    9   28 1
    30   10   29 1
    31   12   30 1
    32   13   31 1
    33   13   32 1
    34   19   33 1
    35   20   34 1
    36   21   35 1
    37   22   36 1
@<TRIPOS>SUBSTRUCTURE
     1 <0>         1 GROUP 0 A     ****
@<TRIPOS>MOLECULE
MiniDrugBank_286
   39    39     1     0     0
SMALL
NO_CHARGES

@<TRIPOS>ATOM
      1 C1          6.2708    3.8308    6.0783 C.ar      1 <0>        0.00000
      2 C2          7.6127    3.6088    6.3874 C.ar      1 <0>        0.00000
      3 C3          8.2895    4.4909    7.2298 C.ar      1 <0>        0.00000
      4 N1          9.6581    4.2463    7.5303 N.pl3     1 <0>        0.00000
      5 O1         10.5389    4.7419    6.7887 O.3       1 <0>        0.00000
      6 O2          9.9426    3.5425    8.5279 O.2       1 <0>        0.00000
      7 C4          7.6244    5.5950    7.7630 C.ar      1 <0>        0.00000
      8 O3          8.3009    6.4488    8.5872 O.3       1 <0>        0.00000
      9 C5          6.2824    5.8169    7.4538 C.ar      1 <0>        0.00000
     10 I1          5.2353    7.4560    8.2226 I         1 <0>        0.00000
     11 C6          5.6057    4.9349    6.6114 C.ar      1 <0>        0.00000
     12 C7          5.5411    2.8791    5.1678 C.3       1 <0>        0.00000
     13 C8          5.6310    3.2608    3.7027 C.2       1 <0>        0.00000
     14 O4          6.6916    3.3527    3.0899 O.2       1 <0>        0.00000
     15 N2          4.3754    3.4927    3.1594 N.am      1 <0>        0.00000
     16 C9          4.1834    3.8758    1.7814 C.3       1 <0>        0.00000
     17 C10         4.2056    5.3949    1.6340 C.3       1 <0>        0.00000
     18 C11         3.1078    6.0839    2.4514 C.3       1 <0>        0.00000
     19 C12         3.1623    7.6051    2.2780 C.3       1 <0>        0.00000
     20 C13         2.0791    8.3192    3.0816 C.3       1 <0>        0.00000
     21 C14         2.1069    8.1140    4.5998 C.2       1 <0>        0.00000
     22 O5          1.0854    7.5791    5.1119 O.co2     1 <0>        0.00000
     23 O6          3.1749    8.4998    5.1569 O.co2     1 <0>        0.00000
     24 H1          8.1260    2.7454    5.9693 H         1 <0>        0.00000
     25 H2          7.7144    7.1629    8.8781 H         1 <0>        0.00000
     26 H3          4.5593    5.0950    6.3610 H         1 <0>        0.00000
     27 H4          5.9448    1.8665    5.2948 H         1 <0>        0.00000
     28 H5          4.4826    2.8313    5.4531 H         1 <0>        0.00000
     29 H6          3.5592    3.3886    3.7551 H         1 <0>        0.00000
     30 H7          3.2385    3.4638    1.4124 H         1 <0>        0.00000
     31 H8          4.9888    3.4399    1.1811 H         1 <0>        0.00000
     32 H9          4.0710    5.6431    0.5741 H         1 <0>        0.00000
     33 H10         5.1866    5.7841    1.9336 H         1 <0>        0.00000
     34 H11         2.1265    5.7145    2.1298 H         1 <0>        0.00000
     35 H12         3.2177    5.8264    3.5105 H         1 <0>        0.00000
     36 H13         4.1541    7.9767    2.5616 H         1 <0>        0.00000
     37 H14         3.0256    7.8488    1.2171 H         1 <0>        0.00000
     38 H15         1.0914    8.0312    2.7006 H         1 <0>        0.00000
     39 H16         2.1794    9.3995    2.9159 H         1 <0>        0.00000
@<TRIPOS>BOND
     1    1    2 ar
     2    1   11 ar
     3    1   12 1
     4    2    3 ar
     5    3    4 1
     6    3    7 ar
     7    4    5 1
     8    4    6 2
     9    7    8 1
    10    7    9 ar
    11    9   10 1
    12    9   11 ar
    13   12   13 1
    14   13   14 2
    15   13   15 am
    16   15   16 1
    17   16   17 1
    18   17   18 1
    19   18   19 1
    20   19   20 1
    21   20   21 1
    22   21   22 2
    23   21   23 1
    24    2   24 1
    25    8   25 1
    26   11   26 1
    27   12   27 1
    28   12   28 1
    29   15   29 1
    30   16   30 1
    31   16   31 1
    32   17   32 1
    33   17   33 1
    34   18   34 1
    35   18   35 1
    36   19   36 1
    37   19   37 1
    38   20   38 1
    39   20   39 1
@<TRIPOS>SUBSTRUCTURE
     1 <0>         1 GROUP 0 A     ****
@<TRIPOS>MOLECULE
MiniDrugBank_287
   57    60     1     0     0
SMALL
NO_CHARGES

@<TRIPOS>ATOM
      1 C1          1.7694    3.1457   -2.6183 C.ar      1 <0>        0.00000
      2 C2          1.2798    1.8563   -2.8429 C.ar      1 <0>        0.00000
      3 C3          0.8702    1.1134   -1.7295 C.ar      1 <0>        0.00000
      4 C4          0.9351    1.6131   -0.4237 C.ar      1 <0>        0.00000
      5 C5          1.4360    2.9159   -0.2245 C.ar      1 <0>        0.00000
      6 C6          1.8473    3.6692   -1.3300 C.ar      1 <0>        0.00000
      7 N1          0.3584   -0.1655   -1.6593 N.pl3     1 <0>        0.00000
      8 C7          0.0773   -0.4796   -0.3598 C.ar      1 <0>        0.00000
      9 C8          0.4448    0.5879    0.4292 C.ar      1 <0>        0.00000
     10 C9         -0.4988   -1.7649    0.1481 C.3       1 <0>        0.00000
     11 N2         -1.1001   -1.5098    1.4854 N.3       1 <0>        0.00000
     12 C10        -0.1547   -0.8619    2.4171 C.3       1 <0>        0.00000
     13 C11         0.2824    0.4962    1.8675 C.2       1 <0>        0.00000
     14 C12        -1.5643   -2.3362   -0.8012 C.3       1 <0>        0.00000
     15 C13        -2.1937   -3.6035   -0.2302 C.3       1 <0>        0.00000
     16 C14        -2.7093   -3.3591    1.1819 C.3       1 <0>        0.00000
     17 C15        -1.6279   -2.7490    2.0729 C.3       1 <0>        0.00000
     18 C16         0.2826   -1.0314   -2.8175 C.3       1 <0>        0.00000
     19 C17        -1.0426   -0.8792   -3.5760 C.3       1 <0>        0.00000
     20 C18        -1.1325   -1.7869   -4.7976 C.3       1 <0>        0.00000
     21 N3         -0.0920   -1.5228   -5.7527 N.pl3     1 <0>        0.00000
     22 S1          0.5087   -2.7905   -6.7576 S.o2      1 <0>        0.00000
     23 C19        -0.9495   -3.1536   -7.7082 C.3       1 <0>        0.00000
     24 C20        -0.6639   -4.2734   -8.6953 C.3       1 <0>        0.00000
     25 C21        -1.4401   -1.8988   -8.4114 C.3       1 <0>        0.00000
     26 O1          0.8046   -3.9473   -5.9352 O.2       1 <0>        0.00000
     27 O2          1.5001   -2.2572   -7.6720 O.2       1 <0>        0.00000
     28 O3          0.5482    1.4319    2.6172 O.2       1 <0>        0.00000
     29 H1          0.3221   -2.4897    0.2459 H         1 <0>        0.00000
     30 H2          2.0947    3.7478   -3.4626 H         1 <0>        0.00000
     31 H3          1.2232    1.4559   -3.8496 H         1 <0>        0.00000
     32 H4          1.5054    3.3406    0.7728 H         1 <0>        0.00000
     33 H5          2.2330    4.6741   -1.1795 H         1 <0>        0.00000
     34 H6         -0.6490   -0.6767    3.3781 H         1 <0>        0.00000
     35 H7          0.7367   -1.4766    2.5889 H         1 <0>        0.00000
     36 H8         -2.3479   -1.5916   -0.9951 H         1 <0>        0.00000
     37 H9         -1.1386   -2.6147   -1.7678 H         1 <0>        0.00000
     38 H10        -3.0122   -3.9404   -0.8757 H         1 <0>        0.00000
     39 H11        -1.4472   -4.4073   -0.2128 H         1 <0>        0.00000
     40 H12        -3.5755   -2.6861    1.1426 H         1 <0>        0.00000
     41 H13        -3.0578   -4.3030    1.6164 H         1 <0>        0.00000
     42 H14        -0.8228   -3.4772    2.2351 H         1 <0>        0.00000
     43 H15        -2.0767   -2.5371    3.0511 H         1 <0>        0.00000
     44 H16         1.1368   -0.8015   -3.4710 H         1 <0>        0.00000
     45 H17         0.4147   -2.0700   -2.4795 H         1 <0>        0.00000
     46 H18        -1.1749    0.1672   -3.8789 H         1 <0>        0.00000
     47 H19        -1.8732   -1.1179   -2.9000 H         1 <0>        0.00000
     48 H20        -1.0681   -2.8422   -4.5139 H         1 <0>        0.00000
     49 H21        -2.0861   -1.6298   -5.3117 H         1 <0>        0.00000
     50 H22        -0.1236   -0.5857   -6.2115 H         1 <0>        0.00000
     51 H23        -1.6983   -3.4850   -6.9826 H         1 <0>        0.00000
     52 H24        -1.5554   -4.5057   -9.2868 H         1 <0>        0.00000
     53 H25         0.1430   -4.0020   -9.3850 H         1 <0>        0.00000
     54 H26        -0.3576   -5.1862   -8.1732 H         1 <0>        0.00000
     55 H27        -2.3385   -2.1103   -9.0005 H         1 <0>        0.00000
     56 H28        -0.6768   -1.4938   -9.0850 H         1 <0>        0.00000
     57 H29        -1.6881   -1.1161   -7.6865 H         1 <0>        0.00000
@<TRIPOS>BOND
     1    1    2 ar
     2    1    6 ar
     3    2    3 ar
     4    3    4 ar
     5    3    7 1
     6    4    5 ar
     7    4    9 1
     8    5    6 ar
     9    7    8 1
    10    7   18 1
    11    8    9 2
    12    8   10 1
    13    9   13 1
    14   10   11 1
    15   10   14 1
    16   10   29 1
    17   11   12 1
    18   11   17 1
    19   12   13 1
    20   13   28 2
    21   14   15 1
    22   15   16 1
    23   16   17 1
    24   18   19 1
    25   19   20 1
    26   20   21 1
    27   21   22 1
    28   22   23 1
    29   22   26 2
    30   22   27 2
    31   23   24 1
    32   23   25 1
    33    1   30 1
    34    2   31 1
    35    5   32 1
    36    6   33 1
    37   12   34 1
    38   12   35 1
    39   14   36 1
    40   14   37 1
    41   15   38 1
    42   15   39 1
    43   16   40 1
    44   16   41 1
    45   17   42 1
    46   17   43 1
    47   18   44 1
    48   18   45 1
    49   19   46 1
    50   19   47 1
    51   20   48 1
    52   20   49 1
    53   21   50 1
    54   23   51 1
    55   24   52 1
    56   24   53 1
    57   24   54 1
    58   25   55 1
    59   25   56 1
    60   25   57 1
@<TRIPOS>SUBSTRUCTURE
     1 <0>         1 GROUP 0 A     ****
@<TRIPOS>MOLECULE
MiniDrugBank_288
    9     8     1     0     0
SMALL
NO_CHARGES

@<TRIPOS>ATOM
      1 N1          0.5731   -1.5640    0.1487 N.pl3     1 <0>        0.00000
      2 C1          0.5753   -0.2064    0.0994 C.2       1 <0>        0.00000
      3 C2         -0.4742    0.5992   -0.0977 C.2       1 <0>        0.00000
      4 S1         -0.3210    2.3192   -0.1369 S.3       1 <0>        0.00000
      5 H1          1.4365   -2.0598    0.3047 H         1 <0>        0.00000
      6 H2         -0.2917   -2.0673    0.0291 H         1 <0>        0.00000
      7 H3          1.5752    0.1902    0.2443 H         1 <0>        0.00000
      8 H4         -1.4654    0.1813   -0.2407 H         1 <0>        0.00000
      9 H5         -1.6112    2.6089   -0.3532 H         1 <0>        0.00000
@<TRIPOS>BOND
     1    1    2 1
     2    2    3 2
     3    3    4 1
     4    1    5 1
     5    1    6 1
     6    2    7 1
     7    3    8 1
     8    4    9 1
@<TRIPOS>SUBSTRUCTURE
     1 <0>         1 GROUP 0 A     ****
@<TRIPOS>MOLECULE
MiniDrugBank_289
   30    30     1     0     0
SMALL
NO_CHARGES

@<TRIPOS>ATOM
      1 N1         -0.5755    2.0927   -2.0418 N.3       1 <0>        0.00000
      2 C1         -0.2468    0.7250   -1.7259 C.3       1 <0>        0.00000
      3 C2          1.2439    0.5490   -1.4260 C.3       1 <0>        0.00000
      4 S1          1.8318    1.5423   -0.0141 S.3       1 <0>        0.00000
      5 C3          3.5627    1.0273   -0.0439 C.3       1 <0>        0.00000
      6 N2          3.7600   -0.2898    0.5972 N.3       1 <0>        0.00000
      7 O1          4.7063   -0.0677    1.7082 O.3       1 <0>        0.00000
      8 C4          5.0189    1.2818    1.6811 C.2       1 <0>        0.00000
      9 C5          4.4102    1.9677    0.7222 C.2       1 <0>        0.00000
     10 C6          5.9718    1.7842    2.7006 C.3       1 <0>        0.00000
     11 N3          5.4918    1.5713    4.0649 N.3       1 <0>        0.00000
     12 C7          7.2920    1.0394    2.5763 C.2       1 <0>        0.00000
     13 O2          8.2078    1.4607    3.4905 O.3       1 <0>        0.00000
     14 O3          7.5302    0.1531    1.7658 O.2       1 <0>        0.00000
     15 C8         -1.1287    0.1705   -0.6195 C.2       1 <0>        0.00000
     16 O4         -1.3325   -1.1651   -0.7158 O.3       1 <0>        0.00000
     17 O5         -1.6009    0.8533    0.2814 O.2       1 <0>        0.00000
     18 H1         -0.4380    2.4273   -2.9826 H         1 <0>        0.00000
     19 H2         -0.7407    2.7450   -1.2911 H         1 <0>        0.00000
     20 H3         -0.4959    0.1534   -2.6280 H         1 <0>        0.00000
     21 H4          1.8361    0.8422   -2.2996 H         1 <0>        0.00000
     22 H5          1.4691   -0.5006   -1.2096 H         1 <0>        0.00000
     23 H6          3.9029    0.9724   -1.0849 H         1 <0>        0.00000
     24 H7          2.9200   -0.5196    1.1281 H         1 <0>        0.00000
     25 H8          4.5280    3.0231    0.5265 H         1 <0>        0.00000
     26 H9          6.1511    2.8534    2.5234 H         1 <0>        0.00000
     27 H10         5.6463    0.6794    4.4811 H         1 <0>        0.00000
     28 H11         4.8596    2.2395    4.4477 H         1 <0>        0.00000
     29 H12         7.8993    2.1770    4.0857 H         1 <0>        0.00000
     30 H13        -0.8810   -1.5496   -1.4972 H         1 <0>        0.00000
@<TRIPOS>BOND
     1    1    2 1
     2    2    3 1
     3    3    4 1
     4    4    5 1
     5    5    6 1
     6    6    7 1
     7    7    8 1
     8    8    9 2
     9    5    9 1
    10    8   10 1
    11   10   11 1
    12   10   12 1
    13   12   13 1
    14   12   14 2
    15    2   15 1
    16   15   16 1
    17   15   17 2
    18    1   18 1
    19    1   19 1
    20    2   20 1
    21    3   21 1
    22    3   22 1
    23    5   23 1
    24    6   24 1
    25    9   25 1
    26   10   26 1
    27   11   27 1
    28   11   28 1
    29   13   29 1
    30   16   30 1
@<TRIPOS>SUBSTRUCTURE
     1 <0>         1 GROUP 0 A     ****
@<TRIPOS>MOLECULE
MiniDrugBank_290
   25    25     1     0     0
SMALL
NO_CHARGES

@<TRIPOS>ATOM
      1 C1         -1.1151   -1.3163    1.2814 C.ar      1 <0>        0.00000
      2 C2         -2.2449   -1.3599    0.4645 C.ar      1 <0>        0.00000
      3 C3         -3.4525   -1.8416    0.9696 C.ar      1 <0>        0.00000
      4 C4         -3.5304   -2.2798    2.2916 C.ar      1 <0>        0.00000
      5 I1         -5.3294   -2.9959    3.0448 I         1 <0>        0.00000
      6 C5         -2.4006   -2.2363    3.1085 C.ar      1 <0>        0.00000
      7 C6         -1.1929   -1.7546    2.6034 C.ar      1 <0>        0.00000
      8 C7          0.1924   -0.7937    0.7348 C.3       1 <0>        0.00000
      9 C8          1.0466   -1.9012    0.1110 C.3       1 <0>        0.00000
     10 N1          2.3010   -1.3117   -0.4172 N.3       1 <0>        0.00000
     11 C9          1.4819   -2.9258    1.1450 C.2       1 <0>        0.00000
     12 O1          2.0902   -2.6187    2.1686 O.2       1 <0>        0.00000
     13 N2          1.1263   -4.2062    0.7962 N.am      1 <0>        0.00000
     14 O2          1.5013   -5.2113    1.6977 O.3       1 <0>        0.00000
     15 H1          0.5278   -2.3913   -0.7208 H         1 <0>        0.00000
     16 H2         -2.1938   -1.0192   -0.5663 H         1 <0>        0.00000
     17 H3         -4.3208   -1.8665    0.3159 H         1 <0>        0.00000
     18 H4         -2.4397   -2.5708    4.1421 H         1 <0>        0.00000
     19 H5         -0.3174   -1.7250    3.2466 H         1 <0>        0.00000
     20 H6          0.7481   -0.3104    1.5502 H         1 <0>        0.00000
     21 H7          0.0000    0.0000    0.0000 H         1 <0>        0.00000
     22 H8          3.0360   -1.1765    0.2265 H         1 <0>        0.00000
     23 H9          2.2597   -0.9065   -1.3156 H         1 <0>        0.00000
     24 H10         0.6239   -4.4110   -0.0602 H         1 <0>        0.00000
     25 H11         1.1480   -5.9929    1.2400 H         1 <0>        0.00000
@<TRIPOS>BOND
     1    1    2 ar
     2    1    7 ar
     3    1    8 1
     4    2    3 ar
     5    3    4 ar
     6    4    5 1
     7    4    6 ar
     8    6    7 ar
     9    8    9 1
    10    9   10 1
    11    9   11 1
    12    9   15 1
    13   11   12 2
    14   11   13 am
    15   13   14 1
    16    2   16 1
    17    3   17 1
    18    6   18 1
    19    7   19 1
    20    8   20 1
    21    8   21 1
    22   10   22 1
    23   10   23 1
    24   13   24 1
    25   14   25 1
@<TRIPOS>SUBSTRUCTURE
     1 <0>         1 GROUP 0 A     ****
@<TRIPOS>MOLECULE
MiniDrugBank_291
   62    67     1     0     0
SMALL
NO_CHARGES

@<TRIPOS>ATOM
      1 C1         -0.4286   -1.4534    0.7942 C.3       1 <0>        0.00000
      2 C2          0.4801   -1.4045   -0.4328 C.3       1 <0>        0.00000
      3 N1          0.1554   -0.2392   -1.2653 N.pl3     1 <0>        0.00000
      4 C3          0.0647    1.0436   -0.5575 C.3       1 <0>        0.00000
      5 C4         -0.8384    0.9129    0.6784 C.3       1 <0>        0.00000
      6 C5         -0.8305    2.2078    1.4886 C.3       1 <0>        0.00000
      7 C6         -1.7372    3.2447    0.8848 C.ar      1 <0>        0.00000
      8 C7         -1.2406    4.1382   -0.0641 C.ar      1 <0>        0.00000
      9 C8         -2.0818    5.0996   -0.6242 C.ar      1 <0>        0.00000
     10 C9         -3.4197    5.1675   -0.2352 C.ar      1 <0>        0.00000
     11 C10        -3.9163    4.2740    0.7137 C.ar      1 <0>        0.00000
     12 C11        -3.0751    3.3125    1.2738 C.ar      1 <0>        0.00000
     13 N2         -0.3935   -0.1930    1.5335 N.3       1 <0>        0.00000
     14 C12         0.5424   -0.2643   -2.6099 C.ar      1 <0>        0.00000
     15 N3          1.6456   -0.9568   -2.9640 N.ar      1 <0>        0.00000
     16 N4          2.0214   -0.9820   -4.2709 N.ar      1 <0>        0.00000
     17 C13         1.2816   -0.3143   -5.1813 C.ar      1 <0>        0.00000
     18 C14         1.7839   -0.4130   -6.5334 C.ar      1 <0>        0.00000
     19 C15         2.6989    0.5271   -7.0080 C.ar      1 <0>        0.00000
     20 C16         3.1959    0.4450   -8.3189 C.ar      1 <0>        0.00000
     21 C17         4.1173    1.3825   -8.8133 C.ar      1 <0>        0.00000
     22 C18         4.6007    1.2855  -10.1185 C.ar      1 <0>        0.00000
     23 C19         4.1705    0.2524  -10.9458 C.ar      1 <0>        0.00000
     24 C20         3.2555   -0.6878  -10.4713 C.ar      1 <0>        0.00000
     25 C21         2.7585   -0.6056   -9.1603 C.ar      1 <0>        0.00000
     26 C22         1.8370   -1.5430   -8.6659 C.ar      1 <0>        0.00000
     27 C23         1.3537   -1.4461   -7.3607 C.ar      1 <0>        0.00000
     28 C24         0.1493    0.4018   -4.8482 C.ar      1 <0>        0.00000
     29 C25        -0.2328    0.4277   -3.5185 C.ar      1 <0>        0.00000
     30 C26        -0.6386    1.1149   -5.8321 C.ar      1 <0>        0.00000
     31 C27        -1.6904    0.4768   -6.4800 C.ar      1 <0>        0.00000
     32 C28        -2.4144    1.2031   -7.4118 C.ar      1 <0>        0.00000
     33 N5         -2.1609    2.4925   -7.7291 N.ar      1 <0>        0.00000
     34 C29        -1.1310    3.0793   -7.0790 C.ar      1 <0>        0.00000
     35 C30        -0.3470    2.4410   -6.1315 C.ar      1 <0>        0.00000
     36 H1         -1.4601   -1.6783    0.4961 H         1 <0>        0.00000
     37 H2         -0.1084   -2.2664    1.4549 H         1 <0>        0.00000
     38 H3          1.5312   -1.3553   -0.1190 H         1 <0>        0.00000
     39 H4          0.3480   -2.3289   -1.0088 H         1 <0>        0.00000
     40 H5          1.0711    1.3729   -0.2644 H         1 <0>        0.00000
     41 H6         -0.3510    1.8091   -1.2255 H         1 <0>        0.00000
     42 H7         -1.8704    0.7213    0.3571 H         1 <0>        0.00000
     43 H8          0.1920    2.5943    1.5475 H         1 <0>        0.00000
     44 H9         -1.1385    1.9956    2.5175 H         1 <0>        0.00000
     45 H10        -0.1997    4.0934   -0.3733 H         1 <0>        0.00000
     46 H11        -1.6953    5.7950   -1.3634 H         1 <0>        0.00000
     47 H12        -4.0745    5.9163   -0.6714 H         1 <0>        0.00000
     48 H13        -4.9579    4.3269    1.0168 H         1 <0>        0.00000
     49 H14        -3.4705    2.6200    2.0121 H         1 <0>        0.00000
     50 H15        -1.0089   -0.2625    2.3443 H         1 <0>        0.00000
     51 H16         3.0315    1.3331   -6.3547 H         1 <0>        0.00000
     52 H17         4.4681    2.1986   -8.1849 H         1 <0>        0.00000
     53 H18         5.3127    2.0175  -10.4885 H         1 <0>        0.00000
     54 H19         4.5477    0.1782  -11.9617 H         1 <0>        0.00000
     55 H20         2.9335   -1.4868  -11.1358 H         1 <0>        0.00000
     56 H21         1.4861   -2.3585   -9.2949 H         1 <0>        0.00000
     57 H22         0.6414   -2.1868   -7.0048 H         1 <0>        0.00000
     58 H23        -1.1160    0.9737   -3.1983 H         1 <0>        0.00000
     59 H24        -1.9491   -0.5566   -6.2724 H         1 <0>        0.00000
     60 H25        -3.2458    0.7516   -7.9433 H         1 <0>        0.00000
     61 H26        -0.9438    4.1133   -7.3489 H         1 <0>        0.00000
     62 H27         0.4664    2.9712   -5.6466 H         1 <0>        0.00000
@<TRIPOS>BOND
     1    1    2 1
     2    2    3 1
     3    3    4 1
     4    4    5 1
     5    5    6 1
     6    6    7 1
     7    7    8 ar
     8    8    9 ar
     9    9   10 ar
    10   10   11 ar
    11   11   12 ar
    12    7   12 ar
    13    5   13 1
    14    1   13 1
    15    3   14 1
    16   14   15 ar
    17   15   16 ar
    18   16   17 ar
    19   17   18 1
    20   18   19 ar
    21   19   20 ar
    22   20   21 ar
    23   21   22 ar
    24   22   23 ar
    25   23   24 ar
    26   24   25 ar
    27   20   25 ar
    28   25   26 ar
    29   26   27 ar
    30   18   27 ar
    31   17   28 ar
    32   28   29 ar
    33   14   29 ar
    34   28   30 1
    35   30   31 ar
    36   31   32 ar
    37   32   33 ar
    38   33   34 ar
    39   34   35 ar
    40   30   35 ar
    41    1   36 1
    42    1   37 1
    43    2   38 1
    44    2   39 1
    45    4   40 1
    46    4   41 1
    47    5   42 1
    48    6   43 1
    49    6   44 1
    50    8   45 1
    51    9   46 1
    52   10   47 1
    53   11   48 1
    54   12   49 1
    55   13   50 1
    56   19   51 1
    57   21   52 1
    58   22   53 1
    59   23   54 1
    60   24   55 1
    61   26   56 1
    62   27   57 1
    63   29   58 1
    64   31   59 1
    65   32   60 1
    66   34   61 1
    67   35   62 1
@<TRIPOS>SUBSTRUCTURE
     1 <0>         1 GROUP 0 A     ****
@<TRIPOS>MOLECULE
MiniDrugBank_292
   32    33     1     0     0
SMALL
NO_CHARGES

@<TRIPOS>ATOM
      1 O1         -0.3631    3.7684   -2.4164 O.2       1 <0>        0.00000
      2 S1          0.9938    3.5258   -1.9647 S.o2      1 <0>        0.00000
      3 O2          2.0566    4.4605   -2.2832 O.2       1 <0>        0.00000
      4 C1          0.9666    3.3250   -0.1950 C.3       1 <0>        0.00000
      5 C2          0.1155    2.1372    0.2292 C.3       1 <0>        0.00000
      6 C3          0.6238    0.8239   -0.3653 C.3       1 <0>        0.00000
      7 C4          0.6031    0.8258   -1.8918 C.3       1 <0>        0.00000
      8 N1          1.4749    1.9244   -2.4029 N.pl3     1 <0>        0.00000
      9 C5          1.9158    1.7977   -3.7747 C.ar      1 <0>        0.00000
     10 C6          3.2607    1.9835   -4.0943 C.ar      1 <0>        0.00000
     11 C7          3.6865    1.8616   -5.4170 C.ar      1 <0>        0.00000
     12 C8          0.9966    1.4899   -4.7777 C.ar      1 <0>        0.00000
     13 C9          1.4224    1.3680   -6.1004 C.ar      1 <0>        0.00000
     14 C10         2.7674    1.5539   -6.4200 C.ar      1 <0>        0.00000
     15 S2          3.3011    1.4013   -8.0755 S.o2      1 <0>        0.00000
     16 O3          4.7179    1.0650   -8.0723 O.2       1 <0>        0.00000
     17 O4          2.3577    0.5520   -8.7892 O.2       1 <0>        0.00000
     18 N2          3.1172    3.0083   -8.6262 N.pl3     1 <0>        0.00000
     19 H1          2.0026    3.2107    0.1403 H         1 <0>        0.00000
     20 H2          0.5694    4.2537    0.2265 H         1 <0>        0.00000
     21 H3          0.1228    2.0629    1.3226 H         1 <0>        0.00000
     22 H4         -0.9266    2.2947   -0.0737 H         1 <0>        0.00000
     23 H5          1.6444    0.6356   -0.0095 H         1 <0>        0.00000
     24 H6          0.0002   -0.0002    0.0001 H         1 <0>        0.00000
     25 H7          0.9847   -0.1381   -2.2495 H         1 <0>        0.00000
     26 H8         -0.4174    0.9422   -2.2753 H         1 <0>        0.00000
     27 H9          3.9850    2.2237   -3.3202 H         1 <0>        0.00000
     28 H10         4.7369    2.0082   -5.6542 H         1 <0>        0.00000
     29 H11        -0.0536    1.3431   -4.5390 H         1 <0>        0.00000
     30 H12         0.6983    1.1278   -6.8744 H         1 <0>        0.00000
     31 H13         3.9672    3.5596   -8.7965 H         1 <0>        0.00000
     32 H14         2.3541    3.2080   -9.2843 H         1 <0>        0.00000
@<TRIPOS>BOND
     1    1    2 2
     2    2    4 1
     3    2    3 2
     4    2    8 1
     5    4    5 1
     6    5    6 1
     7    6    7 1
     8    7    8 1
     9    8    9 1
    10    9   10 ar
    11    9   12 ar
    12   10   11 ar
    13   11   14 ar
    14   12   13 ar
    15   13   14 ar
    16   14   15 1
    17   15   18 1
    18   15   16 2
    19   15   17 2
    20    4   19 1
    21    4   20 1
    22    5   21 1
    23    5   22 1
    24    6   23 1
    25    6   24 1
    26    7   25 1
    27    7   26 1
    28   10   27 1
    29   11   28 1
    30   12   29 1
    31   13   30 1
    32   18   31 1
    33   18   32 1
@<TRIPOS>SUBSTRUCTURE
     1 <0>         1 GROUP 0 A     ****
@<TRIPOS>MOLECULE
MiniDrugBank_293
   75    75     1     0     0
SMALL
NO_CHARGES

@<TRIPOS>ATOM
      1 C1         -4.6631    0.8372   -0.2280 C.3       1 <0>        0.00000
      2 C2         -3.4100    0.8529    0.6212 C.3       1 <0>        0.00000
      3 O1         -2.3677    0.1986   -0.0819 O.3       1 <0>        0.00000
      4 P1         -0.9004    0.0779    0.6185 P.3       1 <0>        0.00000
      5 O2         -0.5369    1.3491    1.3461 O.2       1 <0>        0.00000
      6 O3         -1.1617   -1.1471    1.6611 O.3       1 <0>        0.00000
      7 C3         -0.0951   -1.5762    2.4899 C.3       1 <0>        0.00000
      8 C4         -0.5750   -2.7157    3.3648 C.3       1 <0>        0.00000
      9 C5          0.1192   -0.5938   -0.6666 C.2       1 <0>        0.00000
     10 C6         -0.1652   -1.7885   -1.2119 C.2       1 <0>        0.00000
     11 C7          0.6113   -2.4163   -2.2781 C.ar      1 <0>        0.00000
     12 C8          1.6771   -3.2582   -1.9607 C.ar      1 <0>        0.00000
     13 C9          2.4198   -3.8571   -2.9783 C.ar      1 <0>        0.00000
     14 C10         2.0966   -3.6141   -4.3133 C.ar      1 <0>        0.00000
     15 O4          2.8226   -4.2000   -5.3083 O.3       1 <0>        0.00000
     16 C11         1.0307   -2.7722   -4.6307 C.ar      1 <0>        0.00000
     17 C12         0.2880   -2.1733   -3.6131 C.ar      1 <0>        0.00000
     18 C13         0.6702   -2.4989   -6.0539 C.3       1 <0>        0.00000
     19 C14         0.2942   -3.8142   -6.8027 C.3       1 <0>        0.00000
     20 C15         1.8591   -1.8427   -6.8208 C.3       1 <0>        0.00000
     21 C16        -0.5446   -1.5365   -6.2639 C.3       1 <0>        0.00000
     22 C17         3.5587   -4.7535   -2.6190 C.3       1 <0>        0.00000
     23 C18         3.7222   -4.8649   -1.0721 C.3       1 <0>        0.00000
     24 C19         4.9036   -4.2165   -3.1981 C.3       1 <0>        0.00000
     25 C20         3.4404   -6.2256   -3.1339 C.3       1 <0>        0.00000
     26 P2          1.4646    0.4405   -1.1529 P.3       1 <0>        0.00000
     27 O5          2.4586    0.0708   -2.2262 O.2       1 <0>        0.00000
     28 O6          0.7777    1.8825   -1.4789 O.3       1 <0>        0.00000
     29 C21         0.1382    2.0586   -2.7319 C.3       1 <0>        0.00000
     30 C22        -0.4211    3.4638   -2.8092 C.3       1 <0>        0.00000
     31 O7          2.2269    0.8057    0.2405 O.3       1 <0>        0.00000
     32 C23         3.1125   -0.1509    0.7972 C.3       1 <0>        0.00000
     33 C24         3.6986    0.4036    2.0790 C.3       1 <0>        0.00000
     34 H1         -5.4894    1.3356    0.2866 H         1 <0>        0.00000
     35 H2         -4.4875    1.3402   -1.1846 H         1 <0>        0.00000
     36 H3         -4.9598   -0.1913   -0.4589 H         1 <0>        0.00000
     37 H4         -3.5804    0.3291    1.5665 H         1 <0>        0.00000
     38 H5         -3.1017    1.8813    0.8318 H         1 <0>        0.00000
     39 H6          0.7362   -1.9040    1.8572 H         1 <0>        0.00000
     40 H7          0.2363   -0.7342    3.1062 H         1 <0>        0.00000
     41 H8          0.2260   -3.0716    4.0187 H         1 <0>        0.00000
     42 H9         -1.4207   -2.3970    3.9829 H         1 <0>        0.00000
     43 H10        -0.9268   -3.5511    2.7503 H         1 <0>        0.00000
     44 H11        -1.0232   -2.3570   -0.8646 H         1 <0>        0.00000
     45 H12         1.9328   -3.4526   -0.9211 H         1 <0>        0.00000
     46 H13         3.5235   -4.7521   -4.9289 H         1 <0>        0.00000
     47 H14        -0.5412   -1.5155   -3.8660 H         1 <0>        0.00000
     48 H15         0.0250   -3.6413   -7.8512 H         1 <0>        0.00000
     49 H16         1.1238   -4.5298   -6.7993 H         1 <0>        0.00000
     50 H17        -0.5599   -4.2984   -6.3144 H         1 <0>        0.00000
     51 H18         1.6003   -1.6399   -7.8657 H         1 <0>        0.00000
     52 H19         2.1730   -0.8901   -6.3780 H         1 <0>        0.00000
     53 H20         2.7271   -2.5126   -6.8208 H         1 <0>        0.00000
     54 H21        -0.7698   -1.3673   -7.3238 H         1 <0>        0.00000
     55 H22        -1.4515   -1.9461   -5.8038 H         1 <0>        0.00000
     56 H23        -0.3474   -0.5554   -5.8162 H         1 <0>        0.00000
     57 H24         4.5529   -5.5184   -0.7809 H         1 <0>        0.00000
     58 H25         3.9100   -3.8866   -0.6163 H         1 <0>        0.00000
     59 H26         2.8072   -5.2675   -0.6215 H         1 <0>        0.00000
     60 H27         5.7429   -4.8705   -2.9375 H         1 <0>        0.00000
     61 H28         4.8898   -4.1336   -4.2912 H         1 <0>        0.00000
     62 H29         5.1224   -3.2223   -2.7909 H         1 <0>        0.00000
     63 H30         4.2993   -6.8434   -2.8452 H         1 <0>        0.00000
     64 H31         2.5447   -6.7104   -2.7282 H         1 <0>        0.00000
     65 H32         3.3778   -6.2527   -4.2280 H         1 <0>        0.00000
     66 H33         0.8699    1.8937   -3.5294 H         1 <0>        0.00000
     67 H34        -0.6652    1.3211   -2.8266 H         1 <0>        0.00000
     68 H35        -0.9225    3.6335   -3.7661 H         1 <0>        0.00000
     69 H36        -1.1367    3.6389   -1.9991 H         1 <0>        0.00000
     70 H37         0.3781    4.2034   -2.6932 H         1 <0>        0.00000
     71 H38         2.5577   -1.0731    0.9981 H         1 <0>        0.00000
     72 H39         3.9064   -0.3626    0.0737 H         1 <0>        0.00000
     73 H40         4.3884   -0.3115    2.5357 H         1 <0>        0.00000
     74 H41         4.2354    1.3379    1.8846 H         1 <0>        0.00000
     75 H42         2.9046    0.6361    2.7964 H         1 <0>        0.00000
@<TRIPOS>BOND
     1    1    2 1
     2    2    3 1
     3    3    4 1
     4    4    5 2
     5    4    6 1
     6    6    7 1
     7    7    8 1
     8    4    9 1
     9    9   10 2
    10   10   11 1
    11   11   12 ar
    12   12   13 ar
    13   13   14 ar
    14   14   15 1
    15   14   16 ar
    16   16   17 ar
    17   11   17 ar
    18   16   18 1
    19   18   19 1
    20   18   20 1
    21   18   21 1
    22   13   22 1
    23   22   23 1
    24   22   24 1
    25   22   25 1
    26    9   26 1
    27   26   27 2
    28   26   28 1
    29   28   29 1
    30   29   30 1
    31   26   31 1
    32   31   32 1
    33   32   33 1
    34    1   34 1
    35    1   35 1
    36    1   36 1
    37    2   37 1
    38    2   38 1
    39    7   39 1
    40    7   40 1
    41    8   41 1
    42    8   42 1
    43    8   43 1
    44   10   44 1
    45   12   45 1
    46   15   46 1
    47   17   47 1
    48   19   48 1
    49   19   49 1
    50   19   50 1
    51   20   51 1
    52   20   52 1
    53   20   53 1
    54   21   54 1
    55   21   55 1
    56   21   56 1
    57   23   57 1
    58   23   58 1
    59   23   59 1
    60   24   60 1
    61   24   61 1
    62   24   62 1
    63   25   63 1
    64   25   64 1
    65   25   65 1
    66   29   66 1
    67   29   67 1
    68   30   68 1
    69   30   69 1
    70   30   70 1
    71   32   71 1
    72   32   72 1
    73   33   73 1
    74   33   74 1
    75   33   75 1
@<TRIPOS>SUBSTRUCTURE
     1 <0>         1 GROUP 0 A     ****
@<TRIPOS>MOLECULE
MiniDrugBank_294
   23    23     1     0     0
SMALL
NO_CHARGES

@<TRIPOS>ATOM
      1 C1          1.9204    0.4135   -2.1509 C.3       1 <0>        0.00000
      2 C2          1.9307   -1.0137   -1.6029 C.3       1 <0>        0.00000
      3 O1          0.7998   -1.7285   -2.1011 O.3       1 <0>        0.00000
      4 C3          1.8851   -1.0363   -0.1124 C.ar      1 <0>        0.00000
      5 N1          2.4475    0.3996   -3.5198 N.2       1 <0>        0.00000
      6 N2          2.4957    1.5031   -4.0899 N.1       1 <0>        0.00000
      7 N3          2.5439    2.5112   -4.6213 N.1       1 <0>        0.00000
      8 C4          0.8066   -0.4630    0.5610 C.ar      1 <0>        0.00000
      9 C5          0.7638   -0.4841    1.9551 C.ar      1 <0>        0.00000
     10 C6          1.7997   -1.0786    2.6757 C.ar      1 <0>        0.00000
     11 C7          2.8783   -1.6520    2.0022 C.ar      1 <0>        0.00000
     12 C8          2.9210   -1.6309    0.6081 C.ar      1 <0>        0.00000
     13 N4          1.7567   -1.1002    4.0948 N.pl3     1 <0>        0.00000
     14 O2          0.7776   -0.5787    4.6814 O.3       1 <0>        0.00000
     15 O3          2.6987   -1.6402    4.7236 O.2       1 <0>        0.00000
     16 H1          2.8220   -1.5471   -1.9555 H         1 <0>        0.00000
     17 H2          2.5468    1.0747   -1.5424 H         1 <0>        0.00000
     18 H3          0.9053    0.8244   -2.1761 H         1 <0>        0.00000
     19 H4          0.8800   -1.7288   -3.0669 H         1 <0>        0.00000
     20 H5         -0.0048    0.0025    0.0077 H         1 <0>        0.00000
     21 H6         -0.0827   -0.0336    2.4676 H         1 <0>        0.00000
     22 H7          3.6923   -2.1184    2.5516 H         1 <0>        0.00000
     23 H8          3.7652   -2.0803    0.0921 H         1 <0>        0.00000
@<TRIPOS>BOND
     1    1    2 1
     2    1    5 1
     3    2    3 1
     4    2    4 1
     5    2   16 1
     6    4    8 ar
     7    4   12 ar
     8    5    6 2
     9    6    7 2
    10    8    9 ar
    11    9   10 ar
    12   10   11 ar
    13   10   13 1
    14   11   12 ar
    15   13   14 1
    16   13   15 2
    17    1   17 1
    18    1   18 1
    19    3   19 1
    20    8   20 1
    21    9   21 1
    22   11   22 1
    23   12   23 1
@<TRIPOS>SUBSTRUCTURE
     1 <0>         1 GROUP 0 A     ****
@<TRIPOS>MOLECULE
MiniDrugBank_295
   34    35     1     0     0
SMALL
NO_CHARGES

@<TRIPOS>ATOM
      1 C1          1.9788    0.6051   -0.5982 C.3       1 <0>        0.00000
      2 C2          1.6941    2.0823   -0.8729 C.3       1 <0>        0.00000
      3 C3          1.6666    2.9312    0.4051 C.3       1 <0>        0.00000
      4 C4          0.7042    2.3259    1.4357 C.3       1 <0>        0.00000
      5 C5          0.9869    0.8493    1.7159 C.3       1 <0>        0.00000
      6 C6          1.0091    0.0279    0.4296 C.3       1 <0>        0.00000
      7 N1          3.0131    3.0391    0.9711 N.am      1 <0>        0.00000
      8 C7          3.4551    4.1583    1.6859 C.2       1 <0>        0.00000
      9 O1          2.7486    5.1414    1.8960 O.2       1 <0>        0.00000
     10 N2          4.7772    3.9781    2.1019 N.am      1 <0>        0.00000
     11 C8          5.5828    4.8719    2.8452 C.ar      1 <0>        0.00000
     12 I1          8.3562    7.9486    5.4008 I         1 <0>        0.00000
     13 C9          5.0678    6.1034    3.2499 C.ar      1 <0>        0.00000
     14 C10         5.8626    6.9850    3.9824 C.ar      1 <0>        0.00000
     15 C11         7.1726    6.6352    4.3102 C.ar      1 <0>        0.00000
     16 C12         7.6876    5.4037    3.9055 C.ar      1 <0>        0.00000
     17 C13         6.8927    4.5220    3.1731 C.ar      1 <0>        0.00000
     18 H1          1.8991    0.0388   -1.5338 H         1 <0>        0.00000
     19 H2          3.0075    0.4895   -0.2402 H         1 <0>        0.00000
     20 H3          2.4566    2.4772   -1.5669 H         1 <0>        0.00000
     21 H4          0.7324    2.1762   -1.4049 H         1 <0>        0.00000
     22 H5          1.3554    3.9456    0.1675 H         1 <0>        0.00000
     23 H6          0.7635    2.8929    2.3812 H         1 <0>        0.00000
     24 H7         -0.3361    2.4393    1.0871 H         1 <0>        0.00000
     25 H8          1.9476    0.7509    2.2329 H         1 <0>        0.00000
     26 H9          0.2178    0.4531    2.3897 H         1 <0>        0.00000
     27 H10         0.0001   -0.0139    0.0016 H         1 <0>        0.00000
     28 H11         1.2980   -1.0054    0.6631 H         1 <0>        0.00000
     29 H12         3.6393    2.2450    0.8743 H         1 <0>        0.00000
     30 H13         5.2126    3.0977    1.8382 H         1 <0>        0.00000
     31 H14         4.0484    6.3860    3.0000 H         1 <0>        0.00000
     32 H15         5.4421    7.9396    4.2882 H         1 <0>        0.00000
     33 H16         8.7055    5.1119    4.1508 H         1 <0>        0.00000
     34 H17         7.3040    3.5649    2.8628 H         1 <0>        0.00000
@<TRIPOS>BOND
     1    1    2 1
     2    1    6 1
     3    2    3 1
     4    3    4 1
     5    3    7 1
     6    4    5 1
     7    5    6 1
     8    7    8 am
     9    8    9 2
    10    8   10 am
    11   10   11 1
    12   11   13 ar
    13   11   17 ar
    14   12   15 1
    15   13   14 ar
    16   14   15 ar
    17   15   16 ar
    18   16   17 ar
    19    1   18 1
    20    1   19 1
    21    2   20 1
    22    2   21 1
    23    3   22 1
    24    4   23 1
    25    4   24 1
    26    5   25 1
    27    5   26 1
    28    6   27 1
    29    6   28 1
    30    7   29 1
    31   10   30 1
    32   13   31 1
    33   14   32 1
    34   16   33 1
    35   17   34 1
@<TRIPOS>SUBSTRUCTURE
     1 <0>         1 GROUP 0 A     ****
@<TRIPOS>MOLECULE
MiniDrugBank_296
   31    31     1     0     0
SMALL
NO_CHARGES

@<TRIPOS>ATOM
      1 N1          2.8727   -1.6287   -0.2765 N.3       1 <0>        0.00000
      2 C1          1.9044   -0.8781   -1.0641 C.3       1 <0>        0.00000
      3 O1          2.0101   -1.1816   -2.4502 O.3       1 <0>        0.00000
      4 C2          0.4741   -1.2129   -0.6064 C.3       1 <0>        0.00000
      5 O2         -0.4737   -0.4676   -1.3894 O.3       1 <0>        0.00000
      6 C3         -0.4990    0.9430   -1.1742 C.3       1 <0>        0.00000
      7 C4         -1.5546    1.5228   -2.1132 C.3       1 <0>        0.00000
      8 O3         -1.1867    1.2178   -3.4455 O.3       1 <0>        0.00000
      9 C5         -0.8150    1.2649    0.2857 C.3       1 <0>        0.00000
     10 O4         -0.7188    2.6728    0.4866 O.3       1 <0>        0.00000
     11 C6          0.1589    0.5536    1.2192 C.3       1 <0>        0.00000
     12 O5         -0.3105    0.7178    2.5599 O.3       1 <0>        0.00000
     13 C7          0.2360   -0.9385    0.8959 C.3       1 <0>        0.00000
     14 O6          1.2781   -1.5041    1.6910 O.3       1 <0>        0.00000
     15 N2          0.3199   -2.6737   -0.7909 N.2       1 <0>        0.00000
     16 N3         -0.8306   -3.0549   -1.0431 N.1       1 <0>        0.00000
     17 N4         -1.8841   -3.4247   -1.2764 N.1       1 <0>        0.00000
     18 H1          2.7393   -2.6280   -0.4267 H         1 <0>        0.00000
     19 H2          3.8135   -1.4130   -0.6031 H         1 <0>        0.00000
     20 H3          2.0838    0.1952   -0.9416 H         1 <0>        0.00000
     21 H4          2.9126   -0.9421   -2.7212 H         1 <0>        0.00000
     22 H5          0.4624    1.3813   -1.4661 H         1 <0>        0.00000
     23 H6         -1.6053    2.6042   -1.9909 H         1 <0>        0.00000
     24 H7         -2.5265    1.0808   -1.8965 H         1 <0>        0.00000
     25 H8         -1.8707    1.5953   -4.0247 H         1 <0>        0.00000
     26 H9         -1.8421    0.9651    0.5296 H         1 <0>        0.00000
     27 H10        -0.9256    2.8331    1.4204 H         1 <0>        0.00000
     28 H11         1.1487    1.0234    1.1820 H         1 <0>        0.00000
     29 H12         0.3247    0.2580    3.1282 H         1 <0>        0.00000
     30 H13        -0.7012   -1.4113    1.2177 H         1 <0>        0.00000
     31 H14         1.3094   -2.4473    1.4708 H         1 <0>        0.00000
@<TRIPOS>BOND
     1    1    2 1
     2    2    3 1
     3    2    4 1
     4    4    5 1
     5    5    6 1
     6    6    7 1
     7    7    8 1
     8    6    9 1
     9    9   10 1
    10    9   11 1
    11   11   12 1
    12   11   13 1
    13    4   13 1
    14   13   14 1
    15    4   15 1
    16   15   16 2
    17   16   17 2
    18    1   18 1
    19    1   19 1
    20    2   20 1
    21    3   21 1
    22    6   22 1
    23    7   23 1
    24    7   24 1
    25    8   25 1
    26    9   26 1
    27   10   27 1
    28   11   28 1
    29   12   29 1
    30   13   30 1
    31   14   31 1
@<TRIPOS>SUBSTRUCTURE
     1 <0>         1 GROUP 0 A     ****
@<TRIPOS>MOLECULE
MiniDrugBank_297
   38    39     1     0     0
SMALL
NO_CHARGES

@<TRIPOS>ATOM
      1 C1          3.0232   -1.0899   -3.3107 C.3       1 <0>        0.00000
      2 C2          2.1315    0.0203   -2.8597 C.ar      1 <0>        0.00000
      3 N1          2.7325    1.2141   -2.6569 N.ar      1 <0>        0.00000
      4 C3          1.9346    2.2261   -2.2482 C.ar      1 <0>        0.00000
      5 C4          0.5714    2.1012   -2.0340 C.ar      1 <0>        0.00000
      6 C5         -0.2239    3.2771   -1.5833 C.3       1 <0>        0.00000
      7 O1         -0.7086    3.9852   -2.7184 O.3       1 <0>        0.00000
      8 P1         -1.6042    5.3078   -2.4716 P.3       1 <0>        0.00000
      9 O2         -0.6224    6.2886   -1.6414 O.3       1 <0>        0.00000
     10 O3         -2.6672    4.8152   -1.3570 O.3       1 <0>        0.00000
     11 O4         -2.2120    5.9043   -3.7073 O.2       1 <0>        0.00000
     12 C6         -0.0104    0.8575   -2.2532 C.ar      1 <0>        0.00000
     13 C7         -1.4834    0.6624   -2.0373 C.3       1 <0>        0.00000
     14 N2         -1.7849    0.2556   -0.6715 N.3       1 <0>        0.00000
     15 C8         -3.2106    0.0738   -0.4880 C.3       1 <0>        0.00000
     16 C9         -3.9471    1.3826   -0.2788 C.3       1 <0>        0.00000
     17 O5         -5.0681    1.0396    0.5393 O.3       1 <0>        0.00000
     18 N3         -4.5952   -0.0092    1.3578 N.am      1 <0>        0.00000
     19 C10        -3.4809   -0.6135    0.8140 C.2       1 <0>        0.00000
     20 O6         -2.8502   -1.5481    1.2839 O.2       1 <0>        0.00000
     21 C11         0.7775   -0.2080   -2.6740 C.ar      1 <0>        0.00000
     22 O7          0.2357   -1.4345   -2.8961 O.3       1 <0>        0.00000
     23 H1          3.4240   -1.6239   -2.4437 H         1 <0>        0.00000
     24 H2          2.4766   -1.7987   -3.9415 H         1 <0>        0.00000
     25 H3          3.8576   -0.7038   -3.9057 H         1 <0>        0.00000
     26 H4          2.4449    3.1718   -2.0937 H         1 <0>        0.00000
     27 H5         -1.0829    2.9710   -0.9693 H         1 <0>        0.00000
     28 H6          0.3854    3.9614   -0.9758 H         1 <0>        0.00000
     29 H7          0.1751    6.6481   -2.0851 H         1 <0>        0.00000
     30 H8         -3.3215    4.1250   -1.5974 H         1 <0>        0.00000
     31 H9         -2.0297    1.5897   -2.2414 H         1 <0>        0.00000
     32 H10        -1.8810   -0.1043   -2.7105 H         1 <0>        0.00000
     33 H11        -1.3061   -0.6216   -0.4692 H         1 <0>        0.00000
     34 H12        -3.6588   -0.5164   -1.2946 H         1 <0>        0.00000
     35 H13        -3.3506    2.1326    0.2552 H         1 <0>        0.00000
     36 H14        -4.2930    1.8173   -1.2214 H         1 <0>        0.00000
     37 H15        -5.0577   -0.1967    2.2381 H         1 <0>        0.00000
     38 H16        -0.7192   -1.4196   -2.7193 H         1 <0>        0.00000
@<TRIPOS>BOND
     1    1    2 1
     2    2    3 ar
     3    3    4 ar
     4    4    5 ar
     5    5    6 1
     6    6    7 1
     7    7    8 1
     8    8    9 1
     9    8   10 1
    10    8   11 2
    11    5   12 ar
    12   12   13 1
    13   13   14 1
    14   14   15 1
    15   15   16 1
    16   16   17 1
    17   17   18 1
    18   18   19 am
    19   15   19 1
    20   19   20 2
    21   12   21 ar
    22    2   21 ar
    23   21   22 1
    24    1   23 1
    25    1   24 1
    26    1   25 1
    27    4   26 1
    28    6   27 1
    29    6   28 1
    30    9   29 1
    31   10   30 1
    32   13   31 1
    33   13   32 1
    34   14   33 1
    35   15   34 1
    36   16   35 1
    37   16   36 1
    38   18   37 1
    39   22   38 1
@<TRIPOS>SUBSTRUCTURE
     1 <0>         1 GROUP 0 A     ****
@<TRIPOS>MOLECULE
MiniDrugBank_298
   51    53     1     0     0
SMALL
NO_CHARGES

@<TRIPOS>ATOM
      1 Cl1        -7.4129   -0.7080    2.9332 Cl        1 <0>        0.00000
      2 C1         -7.2505   -2.1509    1.9907 C.ar      1 <0>        0.00000
      3 C2         -7.4135   -3.3962    2.5974 C.ar      1 <0>        0.00000
      4 O1         -7.7002   -3.4935    3.9282 O.3       1 <0>        0.00000
      5 C3         -6.5938   -3.5729    4.8229 C.3       1 <0>        0.00000
      6 C4         -7.2837   -4.5621    1.8427 C.ar      1 <0>        0.00000
      7 O2         -7.4426   -5.7807    2.4338 O.3       1 <0>        0.00000
      8 C5         -8.7600   -6.3253    2.4489 C.3       1 <0>        0.00000
      9 C6         -6.9909   -4.4826    0.4812 C.ar      1 <0>        0.00000
     10 O3         -6.8615   -5.6135   -0.2673 O.3       1 <0>        0.00000
     11 C7         -5.5579   -6.1848   -0.3582 C.3       1 <0>        0.00000
     12 C8         -6.8280   -3.2372   -0.1255 C.ar      1 <0>        0.00000
     13 C9         -6.9578   -2.0714    0.6292 C.ar      1 <0>        0.00000
     14 C10        -6.7733   -0.7465   -0.0684 C.3       1 <0>        0.00000
     15 C11        -5.3754   -0.2681   -0.0559 C.ar      1 <0>        0.00000
     16 N1         -4.3529   -0.8907    0.4922 N.ar      1 <0>        0.00000
     17 C12        -3.2755   -0.0747    0.2541 C.ar      1 <0>        0.00000
     18 C13        -1.9274   -0.1816    0.5810 C.ar      1 <0>        0.00000
     19 N2         -1.4473   -1.2942    1.2933 N.pl3     1 <0>        0.00000
     20 C14        -3.6619    1.0552   -0.4489 C.ar      1 <0>        0.00000
     21 N3         -2.8789    2.0662   -0.8542 N.ar      1 <0>        0.00000
     22 C15        -1.5986    1.8508   -0.4810 C.ar      1 <0>        0.00000
     23 N4         -1.0778    0.8036    0.2031 N.ar      1 <0>        0.00000
     24 N5         -5.0072    0.9153   -0.6389 N.pl3     1 <0>        0.00000
     25 C16        -5.8724    1.8452   -1.3265 C.3       1 <0>        0.00000
     26 C17        -6.4682    2.9024   -0.3837 C.3       1 <0>        0.00000
     27 C18        -7.3875    3.8959   -1.0949 C.3       1 <0>        0.00000
     28 C19        -8.5322    3.2344   -1.7366 C.1       1 <0>        0.00000
     29 C20        -9.4688    2.6970   -2.2615 C.1       1 <0>        0.00000
     30 H1         -6.9666   -3.6459    5.8442 H         1 <0>        0.00000
     31 H2         -5.9756   -2.6832    4.7044 H         1 <0>        0.00000
     32 H3         -6.0132   -4.4617    4.5774 H         1 <0>        0.00000
     33 H4         -8.7385   -7.2935    2.9480 H         1 <0>        0.00000
     34 H5         -9.1126   -6.4313    1.4233 H         1 <0>        0.00000
     35 H6         -9.4101   -5.6424    2.9948 H         1 <0>        0.00000
     36 H7         -5.6040   -7.0762   -0.9826 H         1 <0>        0.00000
     37 H8         -5.2100   -6.4361    0.6432 H         1 <0>        0.00000
     38 H9         -4.8904   -5.4515   -0.8090 H         1 <0>        0.00000
     39 H10        -6.5998   -3.1797   -1.1872 H         1 <0>        0.00000
     40 H11        -7.1290   -0.8219   -1.1048 H         1 <0>        0.00000
     41 H12        -7.4261    0.0077    0.3915 H         1 <0>        0.00000
     42 H13        -2.0926   -1.9935    1.6082 H         1 <0>        0.00000
     43 H14        -0.4816   -1.3291    1.5596 H         1 <0>        0.00000
     44 H15        -0.8900    2.6206   -0.7676 H         1 <0>        0.00000
     45 H16        -6.6690    1.2694   -1.8225 H         1 <0>        0.00000
     46 H17        -5.2938    2.3315   -2.1276 H         1 <0>        0.00000
     47 H18        -5.6476    3.4619    0.0835 H         1 <0>        0.00000
     48 H19        -7.0087    2.4059    0.4327 H         1 <0>        0.00000
     49 H20        -7.7623    4.6174   -0.3591 H         1 <0>        0.00000
     50 H21        -6.8192    4.4679   -1.8374 H         1 <0>        0.00000
     51 H22       -10.2991    2.2193   -2.7266 H         1 <0>        0.00000
@<TRIPOS>BOND
     1    1    2 1
     2    2    3 ar
     3    2   13 ar
     4    3    4 1
     5    3    6 ar
     6    4    5 1
     7    6    7 1
     8    6    9 ar
     9    7    8 1
    10    9   10 1
    11    9   12 ar
    12   10   11 1
    13   12   13 ar
    14   13   14 1
    15   14   15 1
    16   15   16 2
    17   15   24 1
    18   16   17 1
    19   17   18 ar
    20   17   20 ar
    21   18   19 1
    22   18   23 ar
    23   20   21 ar
    24   20   24 1
    25   21   22 ar
    26   22   23 ar
    27   24   25 1
    28   25   26 1
    29   26   27 1
    30   27   28 1
    31   28   29 3
    32    5   30 1
    33    5   31 1
    34    5   32 1
    35    8   33 1
    36    8   34 1
    37    8   35 1
    38   11   36 1
    39   11   37 1
    40   11   38 1
    41   12   39 1
    42   14   40 1
    43   14   41 1
    44   19   42 1
    45   19   43 1
    46   22   44 1
    47   25   45 1
    48   25   46 1
    49   26   47 1
    50   26   48 1
    51   27   49 1
    52   27   50 1
    53   29   51 1
@<TRIPOS>SUBSTRUCTURE
     1 <0>         1 GROUP 0 A     ****
@<TRIPOS>MOLECULE
MiniDrugBank_299
   42    43     1     0     0
SMALL
NO_CHARGES

@<TRIPOS>ATOM
      1 O1          3.8958   -0.6601   -1.0209 O.2       1 <0>        0.00000
      2 C1          2.8452   -1.1291   -1.4345 C.2       1 <0>        0.00000
      3 C2          1.9525   -2.0975   -0.7008 C.3       1 <0>        0.00000
      4 C3          0.9070   -1.3738    0.1458 C.3       1 <0>        0.00000
      5 C4         -0.0924   -0.9570    2.8857 C.2       1 <0>        0.00000
      6 C5         -0.2766   -0.9771    4.2142 C.2       1 <0>        0.00000
      7 C6         -1.1052   -1.5299    1.9425 C.3       1 <0>        0.00000
      8 C7          1.1609   -0.3876    2.2997 C.2       1 <0>        0.00000
      9 C8          2.0022    0.4873    3.1658 C.2       1 <0>        0.00000
     10 O2          2.8887    0.0731    3.8656 O.2       1 <0>        0.00000
     11 O3          1.5937    1.7555    3.0155 O.3       1 <0>        0.00000
     12 N1          1.6312   -0.5443    1.1158 N.2       1 <0>        0.00000
     13 N2          2.8137   -2.9136    0.1821 N.am      1 <0>        0.00000
     14 C9          2.9252   -4.2578    0.0238 C.2       1 <0>        0.00000
     15 O4          2.4035   -5.0084   -0.7850 O.2       1 <0>        0.00000
     16 C10         3.8625   -4.8510    1.0426 C.2       1 <0>        0.00000
     17 N3          5.1310   -4.9547    0.7831 N.2       1 <0>        0.00000
     18 O5          5.4425   -4.4621   -0.4918 O.3       1 <0>        0.00000
     19 C11         6.8392   -4.6123   -0.6934 C.3       1 <0>        0.00000
     20 C12         3.3090   -5.3198    2.3415 C.ar      1 <0>        0.00000
     21 C13         4.0742   -5.8777    3.3442 C.ar      1 <0>        0.00000
     22 S1          3.0717   -6.2807    4.6762 S.3       1 <0>        0.00000
     23 C14         1.7181   -5.6834    3.8067 C.ar      1 <0>        0.00000
     24 N4          1.9577   -5.2080    2.6048 N.ar      1 <0>        0.00000
     25 N5          0.4869   -5.7261    4.3817 N.pl3     1 <0>        0.00000
     26 S2         -0.2866   -2.6130    0.7507 S.3       1 <0>        0.00000
     27 O6          2.3340   -0.8462   -2.6610 O.3       1 <0>        0.00000
     28 H1          1.4829   -2.7682   -1.4278 H         1 <0>        0.00000
     29 H2          0.3448   -0.7188   -0.4966 H         1 <0>        0.00000
     30 H3          0.4675   -0.5579    4.8764 H         1 <0>        0.00000
     31 H4         -1.1708   -1.4126    4.6366 H         1 <0>        0.00000
     32 H5         -1.8640   -2.0938    2.4949 H         1 <0>        0.00000
     33 H6         -1.6276   -0.7463    1.3833 H         1 <0>        0.00000
     34 H7          2.1258    2.3631    3.5723 H         1 <0>        0.00000
     35 H8          3.3267   -2.4645    0.9137 H         1 <0>        0.00000
     36 H9          7.1047   -4.2341   -1.6824 H         1 <0>        0.00000
     37 H10         7.1056   -5.6677   -0.6086 H         1 <0>        0.00000
     38 H11         7.3687   -4.0397    0.0702 H         1 <0>        0.00000
     39 H12         5.1394   -6.0611    3.3649 H         1 <0>        0.00000
     40 H13        -0.3394   -5.3366    3.9151 H         1 <0>        0.00000
     41 H14         0.3520   -6.0629    5.3411 H         1 <0>        0.00000
     42 H15         1.4856   -1.3123   -2.8197 H         1 <0>        0.00000
@<TRIPOS>BOND
     1    1    2 2
     2    2    3 1
     3    2   27 1
     4    3    4 1
     5    3   13 1
     6    3   28 1
     7    4   12 1
     8    4   26 1
     9    4   29 1
    10    5    6 2
    11    5    7 1
    12    5    8 1
    13    7   26 1
    14    8    9 1
    15    8   12 2
    16    9   10 2
    17    9   11 1
    18   13   14 am
    19   14   15 2
    20   14   16 1
    21   16   17 2
    22   16   20 1
    23   17   18 1
    24   18   19 1
    25   20   21 2
    26   20   24 1
    27   21   22 1
    28   22   23 1
    29   23   24 2
    30   23   25 1
    31    6   30 1
    32    6   31 1
    33    7   32 1
    34    7   33 1
    35   11   34 1
    36   13   35 1
    37   19   36 1
    38   19   37 1
    39   19   38 1
    40   21   39 1
    41   25   40 1
    42   25   41 1
    43   27   42 1
@<TRIPOS>SUBSTRUCTURE
     1 <0>         1 GROUP 0 A     ****
@<TRIPOS>MOLECULE
MiniDrugBank_300
   49    52     1     0     0
SMALL
NO_CHARGES

@<TRIPOS>ATOM
      1 C1         -0.5097    0.7475   -0.2550 C.ar      1 <0>        0.00000
      2 N1         -0.2237   -0.1847   -1.2170 N.pl3     1 <0>        0.00000
      3 O1          0.5116   -1.2262   -0.6706 O.3       1 <0>        0.00000
      4 C2          0.6171   -0.9524    0.6712 C.ar      1 <0>        0.00000
      5 C3         -0.0576    0.3501    0.9452 C.ar      1 <0>        0.00000
      6 C4         -0.1835   -0.0796   -2.6507 C.3       1 <0>        0.00000
      7 O2          0.5090    1.1093   -2.9970 O.3       1 <0>        0.00000
      8 C5          0.5846    1.2739   -4.4066 C.3       1 <0>        0.00000
      9 C6          1.3313    2.5541   -4.7127 C.3       1 <0>        0.00000
     10 C7         -1.1960    2.0024   -0.5668 C.ar      1 <0>        0.00000
     11 C8         -2.4608    1.9813   -1.1181 C.ar      1 <0>        0.00000
     12 C9         -3.0211    3.2162   -1.3742 C.ar      1 <0>        0.00000
     13 N2         -2.4036    4.3876   -1.1159 N.ar      1 <0>        0.00000
     14 C10        -1.1739    4.2754   -0.5785 C.ar      1 <0>        0.00000
     15 N3         -0.5206    3.1354   -0.2832 N.ar      1 <0>        0.00000
     16 O3         -0.5144    5.4504   -0.3019 O.3       1 <0>        0.00000
     17 C11         0.7451    5.3505    0.2484 C.ar      1 <0>        0.00000
     18 C12         1.8577    5.2893   -0.5907 C.ar      1 <0>        0.00000
     19 C13         3.1375    5.1869   -0.0455 C.ar      1 <0>        0.00000
     20 C14         3.3048    5.1457    1.3387 C.ar      1 <0>        0.00000
     21 C15         2.1922    5.2070    2.1777 C.ar      1 <0>        0.00000
     22 C16         0.9123    5.3094    1.6326 C.ar      1 <0>        0.00000
     23 O4         -0.1660    5.3680    2.4630 O.3       1 <0>        0.00000
     24 C17        -0.1275    1.0049    2.2493 C.ar      1 <0>        0.00000
     25 C18        -1.3676    1.3108    2.8097 C.ar      1 <0>        0.00000
     26 C19        -1.4351    1.9359    4.0549 C.ar      1 <0>        0.00000
     27 C20        -0.2625    2.2549    4.7397 C.ar      1 <0>        0.00000
     28 C21         0.9777    1.9489    4.1792 C.ar      1 <0>        0.00000
     29 C22         1.0452    1.3238    2.9341 C.ar      1 <0>        0.00000
     30 F1         -0.3274    2.8532    5.9365 F         1 <0>        0.00000
     31 O5          1.1692   -1.6619    1.4945 O.2       1 <0>        0.00000
     32 H1         -1.2140   -0.0506   -3.0149 H         1 <0>        0.00000
     33 H2          0.3361   -0.9605   -3.0377 H         1 <0>        0.00000
     34 H3          1.1066    0.4127   -4.8330 H         1 <0>        0.00000
     35 H4         -0.4310    1.3146   -4.8102 H         1 <0>        0.00000
     36 H5          1.4076    2.7116   -5.7922 H         1 <0>        0.00000
     37 H6          0.8231    3.4144   -4.2649 H         1 <0>        0.00000
     38 H7          2.3402    2.5239   -4.2879 H         1 <0>        0.00000
     39 H8         -2.9923    1.0644   -1.3409 H         1 <0>        0.00000
     40 H9         -4.0125    3.3005   -1.8072 H         1 <0>        0.00000
     41 H10         1.7347    5.3211   -1.6697 H         1 <0>        0.00000
     42 H11         4.0036    5.1376   -0.6990 H         1 <0>        0.00000
     43 H12         4.3015    5.0667    1.7631 H         1 <0>        0.00000
     44 H13         2.3289    5.1754    3.2554 H         1 <0>        0.00000
     45 H14        -0.9839    5.4367    1.9459 H         1 <0>        0.00000
     46 H15        -2.2907    1.0685    2.2886 H         1 <0>        0.00000
     47 H16        -2.4002    2.1739    4.4917 H         1 <0>        0.00000
     48 H17         1.8904    2.1972    4.7129 H         1 <0>        0.00000
     49 H18         2.0191    1.0914    2.5101 H         1 <0>        0.00000
@<TRIPOS>BOND
     1    1    2 1
     2    1    5 2
     3    1   10 1
     4    2    3 1
     5    2    6 1
     6    3    4 1
     7    4    5 1
     8    4   31 2
     9    5   24 1
    10    6    7 1
    11    7    8 1
    12    8    9 1
    13   10   11 ar
    14   10   15 ar
    15   11   12 ar
    16   12   13 ar
    17   13   14 ar
    18   14   15 ar
    19   14   16 1
    20   16   17 1
    21   17   18 ar
    22   17   22 ar
    23   18   19 ar
    24   19   20 ar
    25   20   21 ar
    26   21   22 ar
    27   22   23 1
    28   24   25 ar
    29   24   29 ar
    30   25   26 ar
    31   26   27 ar
    32   27   28 ar
    33   27   30 1
    34   28   29 ar
    35    6   32 1
    36    6   33 1
    37    8   34 1
    38    8   35 1
    39    9   36 1
    40    9   37 1
    41    9   38 1
    42   11   39 1
    43   12   40 1
    44   18   41 1
    45   19   42 1
    46   20   43 1
    47   21   44 1
    48   23   45 1
    49   25   46 1
    50   26   47 1
    51   28   48 1
    52   29   49 1
@<TRIPOS>SUBSTRUCTURE
     1 <0>         1 GROUP 0 A     ****
@<TRIPOS>MOLECULE
MiniDrugBank_301
   42    43     1     0     0
SMALL
NO_CHARGES

@<TRIPOS>ATOM
      1 C1          3.6371    1.5277   -3.6455 C.3       1 <0>        0.00000
      2 C2          3.4499    1.7227   -2.1753 C.ar      1 <0>        0.00000
      3 C3          2.4129    1.2278   -1.4882 C.ar      1 <0>        0.00000
      4 N1          2.2368    1.4068   -0.1315 N.am      1 <0>        0.00000
      5 C4          1.0785    0.8196    0.4743 C.3       1 <0>        0.00000
      6 C5         -0.2215    1.3375   -0.1118 C.3       1 <0>        0.00000
      7 C6         -1.1402    0.1544    0.0790 C.3       1 <0>        0.00000
      8 N2         -2.2373    0.1844   -0.8808 N.2       1 <0>        0.00000
      9 N3         -3.2574    0.7901   -0.5124 N.1       1 <0>        0.00000
     10 N4         -4.1990    1.3440   -0.1841 N.1       1 <0>        0.00000
     11 C7         -0.2034   -1.0107   -0.1988 C.3       1 <0>        0.00000
     12 C8         -0.6088   -2.2923    0.5071 C.3       1 <0>        0.00000
     13 O1         -1.9044   -2.6602    0.0682 O.3       1 <0>        0.00000
     14 P1         -2.6077   -3.9962    0.6513 P.3       1 <0>        0.00000
     15 O2         -1.6047   -5.1948    0.2337 O.3       1 <0>        0.00000
     16 O3         -4.0302   -4.1994    0.2164 O.2       1 <0>        0.00000
     17 O4         -2.4132   -3.8915    2.2529 O.3       1 <0>        0.00000
     18 P2         -3.2274   -3.0508    3.3672 P.3       1 <0>        0.00000
     19 O5         -3.0321   -1.5201    2.8868 O.3       1 <0>        0.00000
     20 O6         -2.2870   -3.1590    4.6773 O.3       1 <0>        0.00000
     21 O7         -4.6506   -3.4837    3.5618 O.2       1 <0>        0.00000
     22 O8          1.0959   -0.5998    0.2625 O.3       1 <0>        0.00000
     23 C9          3.1508    2.1359    0.6409 C.ar      1 <0>        0.00000
     24 O9          3.0443    2.3278    1.8539 O.2       1 <0>        0.00000
     25 N5          4.2333    2.6517   -0.0803 N.am      1 <0>        0.00000
     26 C10         4.4734    2.5111   -1.4388 C.ar      1 <0>        0.00000
     27 O10         5.4487    2.9921   -2.0094 O.2       1 <0>        0.00000
     28 H1          3.1546    2.3369   -4.2001 H         1 <0>        0.00000
     29 H2          3.2005    0.5760   -3.9612 H         1 <0>        0.00000
     30 H3          4.7019    1.5168   -3.8944 H         1 <0>        0.00000
     31 H4          1.6435    0.6467   -1.9875 H         1 <0>        0.00000
     32 H5          1.1420    1.0195    1.5553 H         1 <0>        0.00000
     33 H6         -0.5820    2.1665    0.5017 H         1 <0>        0.00000
     34 H7         -0.1336    1.6784   -1.1425 H         1 <0>        0.00000
     35 H8         -1.5661    0.1230    1.0999 H         1 <0>        0.00000
     36 H9         -0.1212   -1.2113   -1.2845 H         1 <0>        0.00000
     37 H10        -0.6263   -2.1352    1.5862 H         1 <0>        0.00000
     38 H11         0.0930   -3.0911    0.2643 H         1 <0>        0.00000
     39 H12        -1.4900   -5.4078   -0.7171 H         1 <0>        0.00000
     40 H13        -3.4309   -1.2346    2.0372 H         1 <0>        0.00000
     41 H14        -2.5280   -2.6471    5.4785 H         1 <0>        0.00000
     42 H15         4.9169    3.1867    0.4482 H         1 <0>        0.00000
@<TRIPOS>BOND
     1    1    2 1
     2    2    3 2
     3    3    4 1
     4    4    5 1
     5    5    6 1
     6    6    7 1
     7    7    8 1
     8    8    9 2
     9    9   10 2
    10    7   11 1
    11   11   12 1
    12   12   13 1
    13   13   14 1
    14   14   15 1
    15   14   16 2
    16   14   17 1
    17   17   18 1
    18   18   19 1
    19   18   20 1
    20   18   21 2
    21   11   22 1
    22    5   22 1
    23    4   23 am
    24   23   24 2
    25   23   25 am
    26   25   26 am
    27    2   26 1
    28   26   27 2
    29    1   28 1
    30    1   29 1
    31    1   30 1
    32    3   31 1
    33    5   32 1
    34    6   33 1
    35    6   34 1
    36    7   35 1
    37   11   36 1
    38   12   37 1
    39   12   38 1
    40   15   39 1
    41   19   40 1
    42   20   41 1
    43   25   42 1
@<TRIPOS>SUBSTRUCTURE
     1 <0>         1 GROUP 0 A     ****
@<TRIPOS>MOLECULE
MiniDrugBank_302
   46    49     1     0     0
SMALL
NO_CHARGES

@<TRIPOS>ATOM
      1 C1         -3.4660   -3.4745    4.4387 C.ar      1 <0>        0.00000
      2 C2         -2.1216   -3.7372    4.1490 C.ar      1 <0>        0.00000
      3 N1         -3.8710   -3.9769    5.7204 N.pl3     1 <0>        0.00000
      4 C3         -4.2306   -2.6613    3.6098 C.ar      1 <0>        0.00000
      5 C4         -1.5446   -3.2281    2.9900 C.ar      1 <0>        0.00000
      6 C5         -1.3844   -4.5547    5.1626 C.3       1 <0>        0.00000
      7 S1         -2.7133   -5.1741    6.1938 S.o2      1 <0>        0.00000
      8 C6         -5.2972   -4.2600    5.9732 C.3       1 <0>        0.00000
      9 C7         -3.6526   -2.1596    2.4424 C.ar      1 <0>        0.00000
     10 C8         -2.3179   -2.4445    2.1318 C.ar      1 <0>        0.00000
     11 O1         -3.1165   -6.4663    5.6722 O.2       1 <0>        0.00000
     12 O2         -2.3742   -4.9918    7.5898 O.2       1 <0>        0.00000
     13 C9         -1.7064   -1.8871    0.8667 C.3       1 <0>        0.00000
     14 C10        -2.4356   -2.3756   -0.3779 C.3       1 <0>        0.00000
     15 O3         -1.7942   -0.4620    0.8809 O.3       1 <0>        0.00000
     16 N2         -1.9108   -1.7537   -1.5898 N.am      1 <0>        0.00000
     17 C11        -1.0742    0.0994   -0.1950 C.3       1 <0>        0.00000
     18 C12        -2.2069   -2.4176   -2.8499 C.3       1 <0>        0.00000
     19 C13        -1.3571   -0.4762   -1.5762 C.2       1 <0>        0.00000
     20 C14        -1.1508   -3.4157   -3.2005 C.ar      1 <0>        0.00000
     21 O4         -1.0423    0.1634   -2.5813 O.2       1 <0>        0.00000
     22 C15        -0.0465   -3.0258   -3.9583 C.ar      1 <0>        0.00000
     23 C16        -1.2694   -4.7370   -2.7695 C.ar      1 <0>        0.00000
     24 C17         0.9390   -3.9572   -4.2852 C.ar      1 <0>        0.00000
     25 C18        -0.2839   -5.6684   -3.0964 C.ar      1 <0>        0.00000
     26 C19         0.8203   -5.2785   -3.8543 C.ar      1 <0>        0.00000
     27 H1         -0.6383   -2.1878    0.8475 H         1 <0>        0.00000
     28 H2         -5.2581   -2.4087    3.8494 H         1 <0>        0.00000
     29 H3         -0.5030   -3.4347    2.7606 H         1 <0>        0.00000
     30 H4         -0.8586   -5.4024    4.7187 H         1 <0>        0.00000
     31 H5         -0.7251   -3.9314    5.7707 H         1 <0>        0.00000
     32 H6         -5.3940   -4.6262    6.9852 H         1 <0>        0.00000
     33 H7         -5.6259   -5.0065    5.2643 H         1 <0>        0.00000
     34 H8         -5.8534   -3.3425    5.8446 H         1 <0>        0.00000
     35 H9         -4.2471   -1.5344    1.7808 H         1 <0>        0.00000
     36 H10        -2.3502   -3.4650   -0.4689 H         1 <0>        0.00000
     37 H11        -3.5017   -2.1172   -0.3366 H         1 <0>        0.00000
     38 H12        -1.3082    1.1687   -0.2224 H         1 <0>        0.00000
     39 H13        -0.0001   -0.0021   -0.0004 H         1 <0>        0.00000
     40 H14        -2.2878   -1.6399   -3.6095 H         1 <0>        0.00000
     41 H15        -3.1853   -2.8849   -2.7398 H         1 <0>        0.00000
     42 H16         0.0546   -1.9987   -4.2989 H         1 <0>        0.00000
     43 H17        -2.1262   -5.0493   -2.1783 H         1 <0>        0.00000
     44 H18         1.7990   -3.6535   -4.8747 H         1 <0>        0.00000
     45 H19        -0.3765   -6.6973   -2.7610 H         1 <0>        0.00000
     46 H20         1.5878   -6.0036   -4.1090 H         1 <0>        0.00000
@<TRIPOS>BOND
     1    1    2 ar
     2    1    3 1
     3    1    4 ar
     4    2    5 ar
     5    2    6 1
     6    3    7 1
     7    3    8 1
     8    4    9 ar
     9    5   10 ar
    10    6    7 1
    11    7   11 2
    12    7   12 2
    13    9   10 ar
    14   10   13 1
    15   13   14 1
    16   13   15 1
    17   13   27 1
    18   14   16 1
    19   15   17 1
    20   16   18 1
    21   16   19 am
    22   17   19 1
    23   18   20 1
    24   19   21 2
    25   20   22 ar
    26   20   23 ar
    27   22   24 ar
    28   23   25 ar
    29   24   26 ar
    30   25   26 ar
    31    4   28 1
    32    5   29 1
    33    6   30 1
    34    6   31 1
    35    8   32 1
    36    8   33 1
    37    8   34 1
    38    9   35 1
    39   14   36 1
    40   14   37 1
    41   17   38 1
    42   17   39 1
    43   18   40 1
    44   18   41 1
    45   22   42 1
    46   23   43 1
    47   24   44 1
    48   25   45 1
    49   26   46 1
@<TRIPOS>SUBSTRUCTURE
     1 <0>         1 GROUP 0 A     ****
@<TRIPOS>MOLECULE
MiniDrugBank_303
   36    37     1     0     0
SMALL
NO_CHARGES

@<TRIPOS>ATOM
      1 P1         -4.0654   -1.1935    3.5795 P.3       1 <0>        0.00000
      2 O1         -4.4561    0.2944    4.0943 O.3       1 <0>        0.00000
      3 O2         -4.1054   -2.0382    4.9636 O.3       1 <0>        0.00000
      4 S1         -5.1740   -1.9150    2.1582 S.2       1 <0>        0.00000
      5 O3         -2.4744   -1.0723    3.2852 O.3       1 <0>        0.00000
      6 C1         -2.0051   -0.1356    2.3271 C.3       1 <0>        0.00000
      7 C2         -0.6108    0.3281    2.7284 C.3       1 <0>        0.00000
      8 O4          0.2473   -0.8286    2.7644 O.3       1 <0>        0.00000
      9 C3          0.0078    1.2864    1.7202 C.3       1 <0>        0.00000
     10 O5          0.9654    2.1209    2.3682 O.3       1 <0>        0.00000
     11 C4          0.7102    0.3604    0.7543 C.3       1 <0>        0.00000
     12 C5          1.1575   -0.7781    1.6566 C.3       1 <0>        0.00000
     13 N1          1.1635   -2.0470    0.9893 N.am      1 <0>        0.00000
     14 C6          2.3318   -2.4898    0.3319 C.ar      1 <0>        0.00000
     15 O6          3.3814   -1.8445    0.2886 O.2       1 <0>        0.00000
     16 N2          2.2267   -3.7411   -0.2853 N.am      1 <0>        0.00000
     17 C7          1.1131   -4.5669   -0.3122 C.ar      1 <0>        0.00000
     18 O7          1.0904   -5.6585   -0.8746 O.2       1 <0>        0.00000
     19 C8         -0.0777   -4.0326    0.4007 C.ar      1 <0>        0.00000
     20 C9         -1.3195   -4.8647    0.4162 C.3       1 <0>        0.00000
     21 C10         0.0196   -2.8356    0.9923 C.ar      1 <0>        0.00000
     22 H1         -0.6483    0.7567    3.7235 H         1 <0>        0.00000
     23 H2         -0.7250    1.9041    1.2217 H         1 <0>        0.00000
     24 H3          2.1809   -0.6099    2.0410 H         1 <0>        0.00000
     25 H4         -3.8810    0.7297    4.7593 H         1 <0>        0.00000
     26 H5         -3.5041   -1.7768    5.6932 H         1 <0>        0.00000
     27 H6         -1.9815   -0.6175    1.3452 H         1 <0>        0.00000
     28 H7         -2.6968    0.7115    2.2941 H         1 <0>        0.00000
     29 H8          0.4949    2.6163    3.0617 H         1 <0>        0.00000
     30 H9          0.0733    0.0471   -0.0802 H         1 <0>        0.00000
     31 H10         1.5824    0.8685    0.3210 H         1 <0>        0.00000
     32 H11         3.0553   -4.0812   -0.7654 H         1 <0>        0.00000
     33 H12        -1.3108   -5.5224    1.2845 H         1 <0>        0.00000
     34 H13        -1.3716   -5.4658   -0.4912 H         1 <0>        0.00000
     35 H14        -2.1953   -4.2181    0.4619 H         1 <0>        0.00000
     36 H15        -0.8261   -2.4090    1.5231 H         1 <0>        0.00000
@<TRIPOS>BOND
     1    1    2 1
     2    1    3 1
     3    1    4 2
     4    1    5 1
     5    5    6 1
     6    6    7 1
     7    7    8 1
     8    7    9 1
     9    7   22 1
    10    8   12 1
    11    9   10 1
    12    9   11 1
    13    9   23 1
    14   11   12 1
    15   12   13 1
    16   12   24 1
    17   13   14 am
    18   13   21 1
    19   14   15 2
    20   14   16 am
    21   16   17 am
    22   17   18 2
    23   17   19 1
    24   19   20 1
    25   19   21 2
    26    2   25 1
    27    3   26 1
    28    6   27 1
    29    6   28 1
    30   10   29 1
    31   11   30 1
    32   11   31 1
    33   16   32 1
    34   20   33 1
    35   20   34 1
    36   20   35 1
    37   21   36 1
@<TRIPOS>SUBSTRUCTURE
     1 <0>         1 GROUP 0 A     ****
@<TRIPOS>MOLECULE
MiniDrugBank_304
   59    63     1     0     0
SMALL
NO_CHARGES

@<TRIPOS>ATOM
      1 O1         -0.6469   10.2348    3.3006 O.3       1 <0>        0.00000
      2 O2          1.8253   -0.4673    3.5876 O.3       1 <0>        0.00000
      3 C1          0.2835    7.9388    3.2586 C.3       1 <0>        0.00000
      4 C2          1.7477    7.4631    3.3950 C.3       1 <0>        0.00000
      5 C3          1.8514    5.9836    3.7726 C.3       1 <0>        0.00000
      6 C4          0.5044    9.4593    2.9962 C.3       1 <0>        0.00000
      7 C5          1.1829    5.1289    2.6541 C.3       1 <0>        0.00000
      8 C6         -0.3813    7.1218    2.1361 C.3       1 <0>        0.00000
      9 C7          2.3755    8.5026    4.3200 C.3       1 <0>        0.00000
     10 C8         -0.2683    5.6036    2.3777 C.3       1 <0>        0.00000
     11 C9          1.6460    9.8195    3.9822 C.3       1 <0>        0.00000
     12 C10         3.3009    5.5249    3.9488 C.3       1 <0>        0.00000
     13 C11        -0.5573    7.7558    4.5569 C.3       1 <0>        0.00000
     14 C12         1.3320    3.6356    2.9339 C.ar      1 <0>        0.00000
     15 C13         3.3307    4.0902    4.4670 C.3       1 <0>        0.00000
     16 C14         2.3773    3.1610    3.7565 C.ar      1 <0>        0.00000
     17 C15         0.9201    9.7718    1.6145 C.1       1 <0>        0.00000
     18 C16         0.4946    2.6915    2.3133 C.ar      1 <0>        0.00000
     19 C17         2.5239    1.7800    3.9766 C.ar      1 <0>        0.00000
     20 C18         0.6565    1.3219    2.5339 C.ar      1 <0>        0.00000
     21 C19         1.6682    0.8660    3.3689 C.ar      1 <0>        0.00000
     22 C20         1.2545   10.0232    0.5042 C.1       1 <0>        0.00000
     23 C21         1.7148   -0.9127    4.9337 C.3       1 <0>        0.00000
     24 C22         3.0171   -1.5756    5.3555 C.3       1 <0>        0.00000
     25 C23         0.7046   -2.0455    5.0357 C.3       1 <0>        0.00000
     26 C24         2.9437   -2.9798    4.7572 C.3       1 <0>        0.00000
     27 C25         1.4607   -3.2689    4.5235 C.3       1 <0>        0.00000
     28 H1          2.2514    7.5723    2.4210 H         1 <0>        0.00000
     29 H2          1.3355    5.8112    4.7260 H         1 <0>        0.00000
     30 H3          1.7462    5.3007    1.7237 H         1 <0>        0.00000
     31 H4         -1.3670    9.9125    2.7319 H         1 <0>        0.00000
     32 H5         -1.4369    7.4000    2.0306 H         1 <0>        0.00000
     33 H6          0.0917    7.3348    1.1697 H         1 <0>        0.00000
     34 H7          2.2251    8.2454    5.3745 H         1 <0>        0.00000
     35 H8          3.4537    8.5949    4.1534 H         1 <0>        0.00000
     36 H9         -0.6640    5.1093    1.4829 H         1 <0>        0.00000
     37 H10        -0.9234    5.3023    3.2036 H         1 <0>        0.00000
     38 H11         2.3478   10.5454    3.5541 H         1 <0>        0.00000
     39 H12         1.2548   10.2708    4.9022 H         1 <0>        0.00000
     40 H13         3.8345    5.5878    2.9914 H         1 <0>        0.00000
     41 H14         3.8384    6.1664    4.6558 H         1 <0>        0.00000
     42 H15        -1.5573    8.1130    4.3662 H         1 <0>        0.00000
     43 H16        -0.0932    8.3286    5.3446 H         1 <0>        0.00000
     44 H17        -0.5700    6.7064    4.8072 H         1 <0>        0.00000
     45 H18         4.3554    3.7084    4.3808 H         1 <0>        0.00000
     46 H19         3.0683    4.0901    5.5329 H         1 <0>        0.00000
     47 H20        -0.2976    3.0006    1.6383 H         1 <0>        0.00000
     48 H21         3.3164    1.4175    4.6282 H         1 <0>        0.00000
     49 H22        -0.0114    0.6178    2.0449 H         1 <0>        0.00000
     50 H23         1.5545   10.2488   -0.4925 H         1 <0>        0.00000
     51 H24         1.4601   -0.0568    5.5650 H         1 <0>        0.00000
     52 H25         3.9039   -1.0415    5.0010 H         1 <0>        0.00000
     53 H26         3.0648   -1.6476    6.4484 H         1 <0>        0.00000
     54 H27         0.4200   -2.2023    6.0828 H         1 <0>        0.00000
     55 H28        -0.2016   -1.8670    4.4491 H         1 <0>        0.00000
     56 H29         3.4849   -3.0209    3.8050 H         1 <0>        0.00000
     57 H30         3.4013   -3.7170    5.4248 H         1 <0>        0.00000
     58 H31         1.1372   -4.1815    5.0343 H         1 <0>        0.00000
     59 H32         1.2753   -3.4101    3.4523 H         1 <0>        0.00000
@<TRIPOS>BOND
     1    1    6 1
     2    2   21 1
     3    2   23 1
     4    3    4 1
     5    3    6 1
     6    3    8 1
     7    3   13 1
     8    4    5 1
     9    4    9 1
    10    4   28 1
    11    5    7 1
    12    5   12 1
    13    5   29 1
    14    6   11 1
    15    6   17 1
    16    7   10 1
    17    7   14 1
    18    7   30 1
    19    8   10 1
    20    9   11 1
    21   12   15 1
    22   14   16 ar
    23   14   18 ar
    24   15   16 1
    25   16   19 ar
    26   17   22 3
    27   18   20 ar
    28   19   21 ar
    29   20   21 ar
    30   23   24 1
    31   23   25 1
    32   24   26 1
    33   25   27 1
    34   26   27 1
    35    1   31 1
    36    8   32 1
    37    8   33 1
    38    9   34 1
    39    9   35 1
    40   10   36 1
    41   10   37 1
    42   11   38 1
    43   11   39 1
    44   12   40 1
    45   12   41 1
    46   13   42 1
    47   13   43 1
    48   13   44 1
    49   15   45 1
    50   15   46 1
    51   18   47 1
    52   19   48 1
    53   20   49 1
    54   22   50 1
    55   23   51 1
    56   24   52 1
    57   24   53 1
    58   25   54 1
    59   25   55 1
    60   26   56 1
    61   26   57 1
    62   27   58 1
    63   27   59 1
@<TRIPOS>SUBSTRUCTURE
     1 <0>         1 GROUP 0 A     ****
@<TRIPOS>MOLECULE
MiniDrugBank_305
   41    44     1     0     0
SMALL
NO_CHARGES

@<TRIPOS>ATOM
      1 C1          4.7914   -6.2369    1.7129 C.ar      1 <0>        0.00000
      2 C2          4.1911   -7.4010    2.1839 C.ar      1 <0>        0.00000
      3 C3          5.0543   -8.4797    2.3170 C.ar      1 <0>        0.00000
      4 N1          6.3817   -8.4562    2.0266 N.ar      1 <0>        0.00000
      5 N2          6.9495   -7.3460    1.5784 N.ar      1 <0>        0.00000
      6 C4          6.1446   -6.2814    1.4369 C.ar      1 <0>        0.00000
      7 C5          4.4235   -4.9131    1.4020 C.ar      1 <0>        0.00000
      8 N3          6.4871   -5.0388    0.9976 N.pl3     1 <0>        0.00000
      9 N4          5.4526   -4.1782    0.9652 N.ar      1 <0>        0.00000
     10 C6          2.2457   -2.4719    5.3198 C.ar      1 <0>        0.00000
     11 C7          1.9339   -3.8146    5.1065 C.ar      1 <0>        0.00000
     12 C8          2.2062   -4.4064    3.8731 C.ar      1 <0>        0.00000
     13 C9          2.7902   -3.6554    2.8529 C.ar      1 <0>        0.00000
     14 C10         3.1020   -2.3127    3.0663 C.ar      1 <0>        0.00000
     15 C11         2.8297   -1.7209    4.2997 C.ar      1 <0>        0.00000
     16 C12         5.3275   -1.5328    8.0313 C.ar      1 <0>        0.00000
     17 C13         5.2333   -0.2614    8.5972 C.ar      1 <0>        0.00000
     18 C14         4.0557    0.4747    8.4664 C.ar      1 <0>        0.00000
     19 C15         2.9723   -0.0606    7.7697 C.ar      1 <0>        0.00000
     20 C16         3.0666   -1.3320    7.2037 C.ar      1 <0>        0.00000
     21 C17         4.2442   -2.0681    7.3345 C.ar      1 <0>        0.00000
     22 C18         6.5864   -2.3201    8.1713 C.3       1 <0>        0.00000
     23 C19         3.9601    1.7774    9.0458 C.1       1 <0>        0.00000
     24 N5          3.8824    2.8367    9.5169 N.1       1 <0>        0.00000
     25 O1          1.9917   -1.8637    6.5131 O.3       1 <0>        0.00000
     26 Br1         1.1384   -4.8648    6.4692 Br        1 <0>        0.00000
     27 C20         3.0870   -4.3009    1.5061 C.3       1 <0>        0.00000
     28 H1          3.1391   -7.4719    2.4295 H         1 <0>        0.00000
     29 H2          4.6862   -9.4359    2.6755 H         1 <0>        0.00000
     30 H3          7.3986   -4.7080    0.7067 H         1 <0>        0.00000
     31 H4          1.9661   -5.4528    3.6972 H         1 <0>        0.00000
     32 H5          3.5575   -1.7202    2.2771 H         1 <0>        0.00000
     33 H6          3.0759   -0.6743    4.4583 H         1 <0>        0.00000
     34 H7          6.0817    0.1510    9.1396 H         1 <0>        0.00000
     35 H8          2.0499    0.5061    7.6622 H         1 <0>        0.00000
     36 H9          4.3149   -3.0587    6.8920 H         1 <0>        0.00000
     37 H10         6.5529   -2.9359    9.0784 H         1 <0>        0.00000
     38 H11         6.7416   -2.9803    7.3081 H         1 <0>        0.00000
     39 H12         7.4634   -1.6622    8.2295 H         1 <0>        0.00000
     40 H13         2.9300   -3.5358    0.7167 H         1 <0>        0.00000
     41 H14         2.2856   -5.0405    1.2961 H         1 <0>        0.00000
@<TRIPOS>BOND
     1    1    2 ar
     2    1    6 ar
     3    1    7 1
     4    2    3 ar
     5    3    4 ar
     6    4    5 ar
     7    5    6 ar
     8    6    8 1
     9    7    9 2
    10    7   27 1
    11    8    9 1
    12   10   11 ar
    13   10   15 ar
    14   10   25 1
    15   11   12 ar
    16   11   26 1
    17   12   13 ar
    18   13   14 ar
    19   13   27 1
    20   14   15 ar
    21   16   17 ar
    22   16   21 ar
    23   16   22 1
    24   17   18 ar
    25   18   19 ar
    26   18   23 1
    27   19   20 ar
    28   20   21 ar
    29   20   25 1
    30   23   24 3
    31    2   28 1
    32    3   29 1
    33    8   30 1
    34   12   31 1
    35   14   32 1
    36   15   33 1
    37   17   34 1
    38   19   35 1
    39   21   36 1
    40   22   37 1
    41   22   38 1
    42   22   39 1
    43   27   40 1
    44   27   41 1
@<TRIPOS>SUBSTRUCTURE
     1 <0>         1 GROUP 0 A     ****
@<TRIPOS>MOLECULE
MiniDrugBank_306
   38    41     1     0     0
SMALL
NO_CHARGES

@<TRIPOS>ATOM
      1 N1          1.7652   -8.7405    8.8664 N.1       1 <0>        0.00000
      2 C1          2.5242   -8.0627    8.3084 C.1       1 <0>        0.00000
      3 C2          3.4587   -7.2282    7.6216 C.ar      1 <0>        0.00000
      4 C3          3.8061   -5.9860    8.1524 C.ar      1 <0>        0.00000
      5 C4          4.7180   -5.1712    7.4815 C.ar      1 <0>        0.00000
      6 Cl1         5.1465   -3.6380    8.1354 Cl        1 <0>        0.00000
      7 C5          5.2826   -5.5987    6.2797 C.ar      1 <0>        0.00000
      8 C6          4.0233   -7.6558    6.4198 C.ar      1 <0>        0.00000
      9 C7          4.9352   -6.8410    5.7489 C.ar      1 <0>        0.00000
     10 O1          5.4928   -7.2630    4.5623 O.3       1 <0>        0.00000
     11 C8          5.5468   -6.3574    3.5448 C.ar      1 <0>        0.00000
     12 C9          6.7626   -5.9722    2.9800 C.ar      1 <0>        0.00000
     13 Br1         8.4033   -6.6935    3.5968 Br        1 <0>        0.00000
     14 C10         4.3533   -5.8158    3.0674 C.ar      1 <0>        0.00000
     15 F1          3.1854   -6.1864    3.6127 F         1 <0>        0.00000
     16 C11         4.3757   -4.8889    2.0253 C.ar      1 <0>        0.00000
     17 C12         5.5915   -4.5036    1.4605 C.ar      1 <0>        0.00000
     18 C13         6.7850   -5.0453    1.9379 C.ar      1 <0>        0.00000
     19 C14         3.0870   -4.3009    1.5061 C.3       1 <0>        0.00000
     20 C15         2.6862   -3.0658    2.2032 C.ar      1 <0>        0.00000
     21 N2          3.1065   -1.8826    1.7416 N.ar      1 <0>        0.00000
     22 N3          2.5638   -1.0009    2.6017 N.pl3     1 <0>        0.00000
     23 C16         1.8218   -1.5867    3.5819 C.ar      1 <0>        0.00000
     24 N4          1.1613   -0.9766    4.5782 N.ar      1 <0>        0.00000
     25 C17         1.8795   -2.9480    3.3521 C.ar      1 <0>        0.00000
     26 C18         1.1909   -3.7796    4.2305 C.ar      1 <0>        0.00000
     27 C19         0.5207   -3.1132    5.2469 C.ar      1 <0>        0.00000
     28 N5          0.5045   -1.7649    5.4166 N.ar      1 <0>        0.00000
     29 H1          3.3663   -5.6519    9.0899 H         1 <0>        0.00000
     30 H2          5.9939   -4.9690    5.7501 H         1 <0>        0.00000
     31 H3          3.7580   -8.6233    5.9991 H         1 <0>        0.00000
     32 H4          5.6183   -3.7825    0.6478 H         1 <0>        0.00000
     33 H5          7.7229   -4.7344    1.4844 H         1 <0>        0.00000
     34 H6          3.1777   -4.1048    0.4292 H         1 <0>        0.00000
     35 H7          2.2834   -5.0457    1.5826 H         1 <0>        0.00000
     36 H8          2.7415   -0.0148    2.4572 H         1 <0>        0.00000
     37 H9          1.1722   -4.8582    4.1393 H         1 <0>        0.00000
     38 H10        -0.0462   -3.6694    5.9869 H         1 <0>        0.00000
@<TRIPOS>BOND
     1    1    2 3
     2    2    3 1
     3    3    4 ar
     4    3    8 ar
     5    4    5 ar
     6    5    6 1
     7    5    7 ar
     8    7    9 ar
     9    8    9 ar
    10    9   10 1
    11   10   11 1
    12   11   12 ar
    13   11   14 ar
    14   12   13 1
    15   12   18 ar
    16   14   15 1
    17   14   16 ar
    18   16   17 ar
    19   16   19 1
    20   17   18 ar
    21   19   20 1
    22   20   21 2
    23   20   25 1
    24   21   22 1
    25   22   23 1
    26   23   24 ar
    27   23   25 ar
    28   24   28 ar
    29   25   26 ar
    30   26   27 ar
    31   27   28 ar
    32    4   29 1
    33    7   30 1
    34    8   31 1
    35   17   32 1
    36   18   33 1
    37   19   34 1
    38   19   35 1
    39   22   36 1
    40   26   37 1
    41   27   38 1
@<TRIPOS>SUBSTRUCTURE
     1 <0>         1 GROUP 0 A     ****
@<TRIPOS>MOLECULE
MiniDrugBank_307
   78    79     1     0     0
SMALL
NO_CHARGES

@<TRIPOS>ATOM
      1 N1          8.5737   -9.0750    0.0000 N.2       1 <0>        0.00000
      2 C1          7.8592   -8.6625    0.0000 C.2       1 <0>        0.00000
      3 N2          7.1447   -9.0750    0.0000 N.pl3     1 <0>        0.00000
      4 C2          7.8592   -7.8375    0.0000 C.3       1 <0>        0.00000
      5 C3          7.1447   -7.4250    0.0000 C.3       1 <0>        0.00000
      6 C4          7.1447   -6.6000    0.0000 C.3       1 <0>        0.00000
      7 N3          6.4302   -6.1875    0.0000 N.am      1 <0>        0.00000
      8 C5          5.7158   -6.6000    0.0000 C.2       1 <0>        0.00000
      9 O1          5.7158   -7.4250    0.0000 O.2       1 <0>        0.00000
     10 C6          5.0013   -6.1875    0.0000 C.3       1 <0>        0.00000
     11 N4          4.2868   -6.6000    0.0000 N.pl3     1 <0>        0.00000
     12 S1          3.5724   -6.1875    0.0000 S.o2      1 <0>        0.00000
     13 O2          3.1599   -6.9020    0.0000 O.2       1 <0>        0.00000
     14 O3          3.9849   -5.4730    0.0000 O.2       1 <0>        0.00000
     15 C7          2.8579   -5.7750    0.0000 C.3       1 <0>        0.00000
     16 C8          2.1434   -6.1875    0.0000 C.ar      1 <0>        0.00000
     17 C9          2.1434   -7.0125    0.0000 C.ar      1 <0>        0.00000
     18 C10         1.4289   -7.4250    0.0000 C.ar      1 <0>        0.00000
     19 C11         0.7145   -7.0125    0.0000 C.ar      1 <0>        0.00000
     20 C12         0.7145   -6.1875    0.0000 C.ar      1 <0>        0.00000
     21 C13         1.4289   -5.7750    0.0000 C.ar      1 <0>        0.00000
     22 C14         1.4289   -8.2500    0.0000 C.2       1 <0>        0.00000
     23 O4          0.7145   -8.6625    0.0000 O.3       1 <0>        0.00000
     24 O5          2.1434   -8.6625    0.0000 O.2       1 <0>        0.00000
     25 C15         5.0013   -5.3625    0.0000 C.3       1 <0>        0.00000
     26 C16         5.7158   -4.9500    0.0000 C.3       1 <0>        0.00000
     27 C17         4.2868   -4.9500    0.0000 C.3       1 <0>        0.00000
     28 C18         4.2868   -4.1250    0.0000 C.3       1 <0>        0.00000
     29 C19         7.8592   -6.1875    0.0000 C.2       1 <0>        0.00000
     30 O6          7.8592   -5.3625    0.0000 O.2       1 <0>        0.00000
     31 N5          8.5737   -6.6000    0.0000 N.am      1 <0>        0.00000
     32 C20         9.2881   -6.1875    0.0000 C.3       1 <0>        0.00000
     33 C21        10.0026   -6.6000    0.0000 C.ar      1 <0>        0.00000
     34 C22        10.7171   -6.1875    0.0000 C.ar      1 <0>        0.00000
     35 C23        11.4315   -6.6000    0.0000 C.ar      1 <0>        0.00000
     36 C24        11.4315   -7.4250    0.0000 C.ar      1 <0>        0.00000
     37 C25        10.7171   -7.8375    0.0000 C.ar      1 <0>        0.00000
     38 C26        10.0026   -7.4250    0.0000 C.ar      1 <0>        0.00000
     39 C27        12.1460   -7.8375    0.0000 C.2       1 <0>        0.00000
     40 N6         12.8605   -7.4250    0.0000 N.pl3     1 <0>        0.00000
     41 N7         12.1460   -8.6625    0.0000 N.2       1 <0>        0.00000
     42 H1          8.5737   -9.0750    0.0000 H         1 <0>        0.00000
     43 H2          7.1447   -9.0750    0.0000 H         1 <0>        0.00000
     44 H3          7.1447   -9.0750    0.0000 H         1 <0>        0.00000
     45 H4          7.8592   -7.8375    0.0000 H         1 <0>        0.00000
     46 H5          7.8592   -7.8375    0.0000 H         1 <0>        0.00000
     47 H6          7.1447   -7.4250    0.0000 H         1 <0>        0.00000
     48 H7          7.1447   -7.4250    0.0000 H         1 <0>        0.00000
     49 H8          7.1447   -6.6000    0.0000 H         1 <0>        0.00000
     50 H9          6.4302   -6.1875    0.0000 H         1 <0>        0.00000
     51 H10         5.0013   -6.1875    0.0000 H         1 <0>        0.00000
     52 H11         4.2868   -6.6000    0.0000 H         1 <0>        0.00000
     53 H12         2.8579   -5.7750    0.0000 H         1 <0>        0.00000
     54 H13         2.8579   -5.7750    0.0000 H         1 <0>        0.00000
     55 H14         2.1434   -7.0125    0.0000 H         1 <0>        0.00000
     56 H15         0.7145   -7.0125    0.0000 H         1 <0>        0.00000
     57 H16         0.7145   -6.1875    0.0000 H         1 <0>        0.00000
     58 H17         1.4289   -5.7750    0.0000 H         1 <0>        0.00000
     59 H18         0.7145   -8.6625    0.0000 H         1 <0>        0.00000
     60 H19         5.0013   -5.3625    0.0000 H         1 <0>        0.00000
     61 H20         5.7158   -4.9500    0.0000 H         1 <0>        0.00000
     62 H21         5.7158   -4.9500    0.0000 H         1 <0>        0.00000
     63 H22         5.7158   -4.9500    0.0000 H         1 <0>        0.00000
     64 H23         4.2868   -4.9500    0.0000 H         1 <0>        0.00000
     65 H24         4.2868   -4.9500    0.0000 H         1 <0>        0.00000
     66 H25         4.2868   -4.1250    0.0000 H         1 <0>        0.00000
     67 H26         4.2868   -4.1250    0.0000 H         1 <0>        0.00000
     68 H27         4.2868   -4.1250    0.0000 H         1 <0>        0.00000
     69 H28         8.5737   -6.6000    0.0000 H         1 <0>        0.00000
     70 H29         9.2881   -6.1875    0.0000 H         1 <0>        0.00000
     71 H30         9.2881   -6.1875    0.0000 H         1 <0>        0.00000
     72 H31        10.7171   -6.1875    0.0000 H         1 <0>        0.00000
     73 H32        11.4315   -6.6000    0.0000 H         1 <0>        0.00000
     74 H33        10.7171   -7.8375    0.0000 H         1 <0>        0.00000
     75 H34        10.0026   -7.4250    0.0000 H         1 <0>        0.00000
     76 H35        12.8605   -7.4250    0.0000 H         1 <0>        0.00000
     77 H36        12.8605   -7.4250    0.0000 H         1 <0>        0.00000
     78 H37        12.1460   -8.6625    0.0000 H         1 <0>        0.00000
@<TRIPOS>BOND
     1    1    2 2
     2    2    3 1
     3    2    4 1
     4    4    5 1
     5    5    6 1
     6    6    7 1
     7    7    8 am
     8    8    9 2
     9    8   10 1
    10   10   11 1
    11   11   12 1
    12   12   13 2
    13   12   14 2
    14   12   15 1
    15   15   16 1
    16   16   17 ar
    17   17   18 ar
    18   18   19 ar
    19   19   20 ar
    20   20   21 ar
    21   16   21 ar
    22   18   22 1
    23   22   23 1
    24   22   24 2
    25   10   25 1
    26   25   26 1
    27   25   27 1
    28   27   28 1
    29    6   29 1
    30   29   30 2
    31   29   31 am
    32   31   32 1
    33   32   33 1
    34   33   34 ar
    35   34   35 ar
    36   35   36 ar
    37   36   37 ar
    38   37   38 ar
    39   33   38 ar
    40   36   39 1
    41   39   40 1
    42   39   41 2
    43    1   42 1
    44    3   43 1
    45    3   44 1
    46    4   45 1
    47    4   46 1
    48    5   47 1
    49    5   48 1
    50    6   49 1
    51    7   50 1
    52   10   51 1
    53   11   52 1
    54   15   53 1
    55   15   54 1
    56   17   55 1
    57   19   56 1
    58   20   57 1
    59   21   58 1
    60   23   59 1
    61   25   60 1
    62   26   61 1
    63   26   62 1
    64   26   63 1
    65   27   64 1
    66   27   65 1
    67   28   66 1
    68   28   67 1
    69   28   68 1
    70   31   69 1
    71   32   70 1
    72   32   71 1
    73   34   72 1
    74   35   73 1
    75   37   74 1
    76   38   75 1
    77   40   76 1
    78   40   77 1
    79   41   78 1
@<TRIPOS>SUBSTRUCTURE
     1 <0>         1 GROUP 0 A     ****
@<TRIPOS>MOLECULE
MiniDrugBank_308
   46    48     1     0     0
SMALL
NO_CHARGES

@<TRIPOS>ATOM
      1 C1         -1.5003   -2.9853    0.3473 C.ar      1 <0>        0.00000
      2 C2         -1.1422   -2.6948    1.6637 C.ar      1 <0>        0.00000
      3 C3         -1.4388   -3.5996    2.6830 C.ar      1 <0>        0.00000
      4 C4         -2.0937   -4.7948    2.3859 C.ar      1 <0>        0.00000
      5 C5         -2.4519   -5.0853    1.0695 C.ar      1 <0>        0.00000
      6 C6         -2.1552   -4.1805    0.0502 C.ar      1 <0>        0.00000
      7 O1         -1.2076   -2.0932   -0.6567 O.3       1 <0>        0.00000
      8 C7         -1.0553   -3.2890    4.0903 C.3       1 <0>        0.00000
      9 C8         -3.1514   -6.3634    0.7519 C.3       1 <0>        0.00000
     10 N1          0.8472    1.3074    0.4660 N.am      1 <0>        0.00000
     11 C9         -0.5291    1.4118    0.4492 C.ar      1 <0>        0.00000
     12 C10        -1.2626    0.1738    0.0322 C.ar      1 <0>        0.00000
     13 C11        -0.5561   -0.9219   -0.3046 C.ar      1 <0>        0.00000
     14 C12         0.9129   -0.9289   -0.3026 C.ar      1 <0>        0.00000
     15 C13         1.5625    0.1847    0.1035 C.ar      1 <0>        0.00000
     16 C14         3.0529    0.3442    0.2140 C.3       1 <0>        0.00000
     17 O2         -1.1150    2.4461    0.7624 O.2       1 <0>        0.00000
     18 I1         -3.3271    0.2383    0.0371 I         1 <0>        0.00000
     19 C15         1.6220   -2.1623   -0.8005 C.3       1 <0>        0.00000
     20 S1          1.9091   -2.0140   -2.5725 S.3       1 <0>        0.00000
     21 C16         2.7448   -3.5947   -2.8508 C.3       1 <0>        0.00000
     22 C17         1.7769   -4.7437   -2.9497 C.ar      1 <0>        0.00000
     23 O3          1.4690   -5.3731   -1.7854 O.3       1 <0>        0.00000
     24 C18         0.5927   -6.3632   -2.0987 C.ar      1 <0>        0.00000
     25 C19         0.3377   -6.3730   -3.4503 C.ar      1 <0>        0.00000
     26 C20         1.1069   -5.3213   -4.0030 C.ar      1 <0>        0.00000
     27 H1         -0.6312   -1.7626    1.8920 H         1 <0>        0.00000
     28 H2         -2.3246   -5.5001    3.1809 H         1 <0>        0.00000
     29 H3         -2.4324   -4.4045   -0.9770 H         1 <0>        0.00000
     30 H4         -1.8644   -2.7480    4.5962 H         1 <0>        0.00000
     31 H5         -0.8419   -4.2049    4.6566 H         1 <0>        0.00000
     32 H6         -0.1474   -2.6729    4.1292 H         1 <0>        0.00000
     33 H7         -4.2384   -6.2302    0.8158 H         1 <0>        0.00000
     34 H8         -2.9028   -6.7135   -0.2584 H         1 <0>        0.00000
     35 H9         -2.8574   -7.1618    1.4458 H         1 <0>        0.00000
     36 H10         1.3763    2.1254    0.7556 H         1 <0>        0.00000
     37 H11         3.3738    0.0468    1.2087 H         1 <0>        0.00000
     38 H12         3.3182    1.3835    0.0381 H         1 <0>        0.00000
     39 H13         3.5381   -0.2813   -0.5307 H         1 <0>        0.00000
     40 H14         1.0033   -3.0313   -0.5946 H         1 <0>        0.00000
     41 H15         2.5669   -2.2650   -0.2742 H         1 <0>        0.00000
     42 H16         3.4570   -3.7720   -2.0354 H         1 <0>        0.00000
     43 H17         3.3389   -3.5268   -3.7706 H         1 <0>        0.00000
     44 H18         0.2486   -6.9624   -1.2684 H         1 <0>        0.00000
     45 H19        -0.3207   -7.0528   -3.9717 H         1 <0>        0.00000
     46 H20         1.1635   -5.0241   -5.0405 H         1 <0>        0.00000
@<TRIPOS>BOND
     1    1    2 ar
     2    1    6 ar
     3    1    7 1
     4    2    3 ar
     5    3    4 ar
     6    3    8 1
     7    4    5 ar
     8    5    6 ar
     9    5    9 1
    10    7   13 1
    11   10   11 am
    12   10   15 1
    13   11   12 1
    14   11   17 2
    15   12   13 2
    16   12   18 1
    17   13   14 1
    18   14   15 2
    19   14   19 1
    20   15   16 1
    21   19   20 1
    22   20   21 1
    23   21   22 1
    24   22   23 1
    25   22   26 2
    26   23   24 1
    27   24   25 2
    28   25   26 1
    29    2   27 1
    30    4   28 1
    31    6   29 1
    32    8   30 1
    33    8   31 1
    34    8   32 1
    35    9   33 1
    36    9   34 1
    37    9   35 1
    38   10   36 1
    39   16   37 1
    40   16   38 1
    41   16   39 1
    42   19   40 1
    43   19   41 1
    44   21   42 1
    45   21   43 1
    46   24   44 1
    47   25   45 1
    48   26   46 1
@<TRIPOS>SUBSTRUCTURE
     1 <0>         1 GROUP 0 A     ****
@<TRIPOS>MOLECULE
MiniDrugBank_309
   47    49     1     0     0
SMALL
NO_CHARGES

@<TRIPOS>ATOM
      1 C1         -6.5186    2.9158   -5.0083 C.ar      1 <0>        0.00000
      2 C2         -6.8647    1.6703   -4.2869 C.2       1 <0>        0.00000
      3 O1         -8.0358    1.4559   -3.9897 O.2       1 <0>        0.00000
      4 C3         -5.8495    0.6952   -3.9215 C.ar      1 <0>        0.00000
      5 C4         -5.0800    0.0855   -4.9123 C.ar      1 <0>        0.00000
      6 C5         -4.1064   -0.8500   -4.5622 C.ar      1 <0>        0.00000
      7 C6         -3.9023   -1.1758   -3.2213 C.ar      1 <0>        0.00000
      8 C7         -2.3250   -1.9325   -1.6103 C.3       1 <0>        0.00000
      9 C8         -0.9303   -2.4622   -1.6866 C.2       1 <0>        0.00000
     10 C9          0.1625   -1.7193   -1.4565 C.2       1 <0>        0.00000
     11 C10         1.5558   -2.2520   -1.5294 C.3       1 <0>        0.00000
     12 N1          2.2833   -1.5241   -2.5301 N.3       1 <0>        0.00000
     13 C11         3.7372   -1.6520   -2.3382 C.3       1 <0>        0.00000
     14 C12         1.9280   -1.9721   -3.8867 C.3       1 <0>        0.00000
     15 C13         2.2002   -1.0911   -5.0712 C.3       1 <0>        0.00000
     16 C14        -4.6718   -0.5660   -2.2306 C.ar      1 <0>        0.00000
     17 C15        -5.6454    0.3695   -2.5806 C.ar      1 <0>        0.00000
     18 C16        -7.4448    3.5026   -5.8705 C.ar      1 <0>        0.00000
     19 C17        -7.1183    4.6755   -6.5513 C.ar      1 <0>        0.00000
     20 C18        -5.8655    5.2616   -6.3697 C.ar      1 <0>        0.00000
     21 O2         -2.9452   -2.0953   -2.8782 O.3       1 <0>        0.00000
     22 C19         0.7880   -1.3271   -4.6198 C.3       1 <0>        0.00000
     23 Br1        -5.4249    6.8520   -7.2907 Br        1 <0>        0.00000
     24 C20        -4.9394    4.6748   -5.5075 C.ar      1 <0>        0.00000
     25 C21        -5.2659    3.5019   -4.8268 C.ar      1 <0>        0.00000
     26 H1         -5.2314    0.3315   -5.9603 H         1 <0>        0.00000
     27 H2         -3.5095   -1.3214   -5.3385 H         1 <0>        0.00000
     28 H3         -2.9258   -2.4543   -0.8587 H         1 <0>        0.00000
     29 H4         -2.3033   -0.8659   -1.3664 H         1 <0>        0.00000
     30 H5         -0.8177   -3.5097   -1.9549 H         1 <0>        0.00000
     31 H6          0.0475   -0.6723   -1.1858 H         1 <0>        0.00000
     32 H7          2.0675   -2.1153   -0.5723 H         1 <0>        0.00000
     33 H8          1.5898   -3.3127   -1.7961 H         1 <0>        0.00000
     34 H9          4.2346   -1.0874   -3.1151 H         1 <0>        0.00000
     35 H10         4.0011   -2.6992   -2.4029 H         1 <0>        0.00000
     36 H11         3.9905   -1.2586   -1.3628 H         1 <0>        0.00000
     37 H12         2.0612   -3.0371   -4.0306 H         1 <0>        0.00000
     38 H13         2.6334   -0.1165   -4.8823 H         1 <0>        0.00000
     39 H14         2.5127   -1.5469   -6.0029 H         1 <0>        0.00000
     40 H15        -4.5183   -0.8163   -1.1845 H         1 <0>        0.00000
     41 H16        -6.2386    0.8387   -1.8001 H         1 <0>        0.00000
     42 H17        -8.4233    3.0536   -6.0206 H         1 <0>        0.00000
     43 H18        -7.8514    5.1199   -7.2196 H         1 <0>        0.00000
     44 H19         0.1550   -1.9407   -5.2493 H         1 <0>        0.00000
     45 H20         0.2729   -0.5111   -4.1276 H         1 <0>        0.00000
     46 H21        -3.9590    5.1187   -5.3553 H         1 <0>        0.00000
     47 H22        -4.5361    3.0522   -4.1583 H         1 <0>        0.00000
@<TRIPOS>BOND
     1    1    2 1
     2    1   18 ar
     3    1   25 ar
     4    2    3 2
     5    2    4 1
     6    4    5 ar
     7    4   17 ar
     8    5    6 ar
     9    6    7 ar
    10    7   16 ar
    11    7   21 1
    12    8    9 1
    13    8   21 1
    14    9   10 2
    15   10   11 1
    16   11   12 1
    17   12   13 1
    18   12   14 1
    19   14   15 1
    20   14   22 1
    21   15   22 1
    22   16   17 ar
    23   18   19 ar
    24   19   20 ar
    25   20   23 1
    26   20   24 ar
    27   24   25 ar
    28    5   26 1
    29    6   27 1
    30    8   28 1
    31    8   29 1
    32    9   30 1
    33   10   31 1
    34   11   32 1
    35   11   33 1
    36   13   34 1
    37   13   35 1
    38   13   36 1
    39   14   37 1
    40   15   38 1
    41   15   39 1
    42   16   40 1
    43   17   41 1
    44   18   42 1
    45   19   43 1
    46   22   44 1
    47   22   45 1
    48   24   46 1
    49   25   47 1
@<TRIPOS>SUBSTRUCTURE
     1 <0>         1 GROUP 0 A     ****
@<TRIPOS>MOLECULE
MiniDrugBank_310
   33    35     1     0     0
SMALL
NO_CHARGES

@<TRIPOS>ATOM
      1 O1         -2.0412    2.8615    2.3149 O.3       1 <0>        0.00000
      2 C1         -0.8811    2.4285    1.6206 C.3       1 <0>        0.00000
      3 C2         -0.1994    1.3333    2.4288 C.3       1 <0>        0.00000
      4 O2         -1.1285    0.2356    2.5840 O.3       1 <0>        0.00000
      5 C3         -0.6159   -0.9100    1.8769 C.3       1 <0>        0.00000
      6 N1         -1.7127   -1.6108    1.2130 N.pl3     1 <0>        0.00000
      7 C4         -2.8555   -1.0118    0.7483 C.ar      1 <0>        0.00000
      8 C5         -3.6528   -1.9873    0.1881 C.ar      1 <0>        0.00000
      9 C6         -2.9685   -3.2231    0.3162 C.ar      1 <0>        0.00000
     10 C7         -3.2099   -4.5518   -0.0298 C.ar      1 <0>        0.00000
     11 N2         -2.2873   -5.4963    0.2660 N.ar      1 <0>        0.00000
     12 C8         -1.1603   -5.0904    0.8932 C.ar      1 <0>        0.00000
     13 N3         -0.8108   -3.8462    1.2784 N.ar      1 <0>        0.00000
     14 C9         -1.7653   -2.9554    0.9576 C.ar      1 <0>        0.00000
     15 N4         -4.3918   -4.9470   -0.6820 N.pl3     1 <0>        0.00000
     16 C10         0.4468   -0.3802    0.9263 C.3       1 <0>        0.00000
     17 O3          1.3993   -1.3703    0.5961 O.3       1 <0>        0.00000
     18 C11         1.0324    0.7610    1.7344 C.3       1 <0>        0.00000
     19 O4          1.9175    0.2377    2.7247 O.3       1 <0>        0.00000
     20 I1         -5.4852   -1.6058   -0.6551 I         1 <0>        0.00000
     21 H1          0.0375    1.7100    3.4332 H         1 <0>        0.00000
     22 H2         -0.2003   -1.6319    2.6174 H         1 <0>        0.00000
     23 H3         -0.0050   -0.0018    0.0006 H         1 <0>        0.00000
     24 H4          1.5919    1.4851    1.1335 H         1 <0>        0.00000
     25 H5         -2.4532    3.5583    1.7759 H         1 <0>        0.00000
     26 H6         -1.1788    2.0512    0.6377 H         1 <0>        0.00000
     27 H7         -0.2100    3.2824    1.4885 H         1 <0>        0.00000
     28 H8         -3.0000    0.0552    0.8576 H         1 <0>        0.00000
     29 H9         -0.4409   -5.8711    1.1154 H         1 <0>        0.00000
     30 H10        -5.1039   -4.2663   -0.8645 H         1 <0>        0.00000
     31 H11        -4.5476   -5.9185   -0.8709 H         1 <0>        0.00000
     32 H12         2.0420   -0.9618   -0.0102 H         1 <0>        0.00000
     33 H13         2.6840   -0.1151    2.2480 H         1 <0>        0.00000
@<TRIPOS>BOND
     1    1    2 1
     2    2    3 1
     3    3    4 1
     4    3   18 1
     5    3   21 1
     6    4    5 1
     7    5    6 1
     8    5   16 1
     9    5   22 1
    10    6    7 1
    11    6   14 1
    12    7    8 2
    13    8    9 1
    14    8   20 1
    15    9   10 ar
    16    9   14 ar
    17   10   11 ar
    18   10   15 1
    19   11   12 ar
    20   12   13 ar
    21   13   14 ar
    22   16   17 1
    23   16   18 1
    24   16   23 1
    25   18   19 1
    26   18   24 1
    27    1   25 1
    28    2   26 1
    29    2   27 1
    30    7   28 1
    31   12   29 1
    32   15   30 1
    33   15   31 1
    34   17   32 1
    35   19   33 1
@<TRIPOS>SUBSTRUCTURE
     1 <0>         1 GROUP 0 A     ****
@<TRIPOS>MOLECULE
MiniDrugBank_311
   82    84     1     0     0
SMALL
NO_CHARGES

@<TRIPOS>ATOM
      1 N1         -8.9114   -3.6851    0.0000 N.2       1 <0>        0.00000
      2 C1         -8.5969   -2.9224    0.0000 C.2       1 <0>        0.00000
      3 N2         -9.1001   -2.2687    0.0000 N.pl3     1 <0>        0.00000
      4 C2         -7.7791   -2.8135    0.0000 C.ar      1 <0>        0.00000
      5 C3         -7.4646   -2.0508    0.0000 C.ar      1 <0>        0.00000
      6 C4         -6.6468   -1.9418    0.0000 C.ar      1 <0>        0.00000
      7 C5         -6.1436   -2.5956    0.0000 C.ar      1 <0>        0.00000
      8 C6         -5.3258   -2.4866    0.0000 C.3       1 <0>        0.00000
      9 N3         -5.0113   -1.7239    0.0000 N.am      1 <0>        0.00000
     10 C7         -4.1935   -1.6150    0.0000 C.2       1 <0>        0.00000
     11 O1         -3.6903   -2.2687    0.0000 O.2       1 <0>        0.00000
     12 C8         -3.8790   -0.8523    0.0000 C.3       1 <0>        0.00000
     13 C9         -4.3822   -0.1985    0.0000 C.3       1 <0>        0.00000
     14 C10        -5.2000   -0.3075    0.0000 C.3       1 <0>        0.00000
     15 C11        -5.7032    0.3462    0.0000 C.2       1 <0>        0.00000
     16 N4         -6.5210    0.2373    0.0000 N.am      1 <0>        0.00000
     17 O2         -5.3887    1.1089    0.0000 O.2       1 <0>        0.00000
     18 N5         -3.0612   -0.7433    0.0000 N.am      1 <0>        0.00000
     19 C12        -2.7467    0.0194    0.0000 C.2       1 <0>        0.00000
     20 O3         -3.2499    0.6731    0.0000 O.2       1 <0>        0.00000
     21 C13        -1.9289    0.1283    0.0000 C.3       1 <0>        0.00000
     22 C14        -1.6144    0.8910    0.0000 C.3       1 <0>        0.00000
     23 C15        -0.7966    1.0000    0.0000 C.ar      1 <0>        0.00000
     24 C16        -0.2278    0.4024    0.0000 C.ar      1 <0>        0.00000
     25 N6          0.5163    0.7588    0.0000 N.pl3     1 <0>        0.00000
     26 C17         0.4074    1.5765    0.0000 C.ar      1 <0>        0.00000
     27 C18        -0.4041    1.7256    0.0000 C.ar      1 <0>        0.00000
     28 C19        -0.6807    2.5029    0.0000 C.ar      1 <0>        0.00000
     29 C20        -0.1458    3.1310    0.0000 C.ar      1 <0>        0.00000
     30 O4         -0.4224    3.9083    0.0000 O.3       1 <0>        0.00000
     31 C21        -1.2339    4.0574    0.0000 C.3       1 <0>        0.00000
     32 C22        -1.5105    4.8346    0.0000 C.3       1 <0>        0.00000
     33 C23        -0.9756    5.4628    0.0000 C.3       1 <0>        0.00000
     34 C24         0.6656    2.9819    0.0000 C.ar      1 <0>        0.00000
     35 C25         0.9422    2.2047    0.0000 C.ar      1 <0>        0.00000
     36 N7         -1.4256   -0.5254    0.0000 N.pl3     1 <0>        0.00000
     37 S1         -0.6079   -0.4164    0.0000 S.o2      1 <0>        0.00000
     38 O5         -0.7168    0.4013    0.0000 O.2       1 <0>        0.00000
     39 O6         -0.4989   -1.2342    0.0000 O.2       1 <0>        0.00000
     40 C26         0.2099   -0.3075    0.0000 C.3       1 <0>        0.00000
     41 C27         0.7131   -0.9612    0.0000 C.3       1 <0>        0.00000
     42 C28        -6.4581   -3.3583    0.0000 C.ar      1 <0>        0.00000
     43 C29        -7.2759   -3.4672    0.0000 C.ar      1 <0>        0.00000
     44 H1         -8.9114   -3.6851    0.0000 H         1 <0>        0.00000
     45 H2         -9.1001   -2.2687    0.0000 H         1 <0>        0.00000
     46 H3         -9.1001   -2.2687    0.0000 H         1 <0>        0.00000
     47 H4         -7.4646   -2.0508    0.0000 H         1 <0>        0.00000
     48 H5         -6.6468   -1.9418    0.0000 H         1 <0>        0.00000
     49 H6         -5.3258   -2.4866    0.0000 H         1 <0>        0.00000
     50 H7         -5.3258   -2.4866    0.0000 H         1 <0>        0.00000
     51 H8         -5.0113   -1.7239    0.0000 H         1 <0>        0.00000
     52 H9         -3.8790   -0.8523    0.0000 H         1 <0>        0.00000
     53 H10        -4.3822   -0.1985    0.0000 H         1 <0>        0.00000
     54 H11        -4.3822   -0.1985    0.0000 H         1 <0>        0.00000
     55 H12        -5.2000   -0.3075    0.0000 H         1 <0>        0.00000
     56 H13        -5.2000   -0.3075    0.0000 H         1 <0>        0.00000
     57 H14        -6.5210    0.2373    0.0000 H         1 <0>        0.00000
     58 H15        -6.5210    0.2373    0.0000 H         1 <0>        0.00000
     59 H16        -3.0612   -0.7433    0.0000 H         1 <0>        0.00000
     60 H17        -1.9289    0.1283    0.0000 H         1 <0>        0.00000
     61 H18        -1.6144    0.8910    0.0000 H         1 <0>        0.00000
     62 H19        -1.6144    0.8910    0.0000 H         1 <0>        0.00000
     63 H20        -0.2278    0.4024    0.0000 H         1 <0>        0.00000
     64 H21         0.5163    0.7588    0.0000 H         1 <0>        0.00000
     65 H22        -0.6807    2.5029    0.0000 H         1 <0>        0.00000
     66 H23        -1.2339    4.0574    0.0000 H         1 <0>        0.00000
     67 H24        -1.2339    4.0574    0.0000 H         1 <0>        0.00000
     68 H25        -1.5105    4.8346    0.0000 H         1 <0>        0.00000
     69 H26        -1.5105    4.8346    0.0000 H         1 <0>        0.00000
     70 H27        -0.9756    5.4628    0.0000 H         1 <0>        0.00000
     71 H28        -0.9756    5.4628    0.0000 H         1 <0>        0.00000
     72 H29        -0.9756    5.4628    0.0000 H         1 <0>        0.00000
     73 H30         0.6656    2.9819    0.0000 H         1 <0>        0.00000
     74 H31         0.9422    2.2047    0.0000 H         1 <0>        0.00000
     75 H32        -1.4256   -0.5254    0.0000 H         1 <0>        0.00000
     76 H33         0.2099   -0.3075    0.0000 H         1 <0>        0.00000
     77 H34         0.2099   -0.3075    0.0000 H         1 <0>        0.00000
     78 H35         0.7131   -0.9612    0.0000 H         1 <0>        0.00000
     79 H36         0.7131   -0.9612    0.0000 H         1 <0>        0.00000
     80 H37         0.7131   -0.9612    0.0000 H         1 <0>        0.00000
     81 H38        -6.4581   -3.3583    0.0000 H         1 <0>        0.00000
     82 H39        -7.2759   -3.4672    0.0000 H         1 <0>        0.00000
@<TRIPOS>BOND
     1    1    2 2
     2    2    3 1
     3    2    4 1
     4    4    5 ar
     5    5    6 ar
     6    6    7 ar
     7    7    8 1
     8    8    9 1
     9    9   10 am
    10   10   11 2
    11   10   12 1
    12   12   13 1
    13   13   14 1
    14   14   15 1
    15   15   16 am
    16   15   17 2
    17   12   18 1
    18   18   19 am
    19   19   20 2
    20   19   21 1
    21   21   22 1
    22   22   23 1
    23   23   24 2
    24   24   25 1
    25   25   26 1
    26   26   27 ar
    27   23   27 1
    28   27   28 ar
    29   28   29 ar
    30   29   30 1
    31   30   31 1
    32   31   32 1
    33   32   33 1
    34   29   34 ar
    35   34   35 ar
    36   26   35 ar
    37   21   36 1
    38   36   37 1
    39   37   38 2
    40   37   39 2
    41   37   40 1
    42   40   41 1
    43    7   42 ar
    44   42   43 ar
    45    4   43 ar
    46    1   44 1
    47    3   45 1
    48    3   46 1
    49    5   47 1
    50    6   48 1
    51    8   49 1
    52    8   50 1
    53    9   51 1
    54   12   52 1
    55   13   53 1
    56   13   54 1
    57   14   55 1
    58   14   56 1
    59   16   57 1
    60   16   58 1
    61   18   59 1
    62   21   60 1
    63   22   61 1
    64   22   62 1
    65   24   63 1
    66   25   64 1
    67   28   65 1
    68   31   66 1
    69   31   67 1
    70   32   68 1
    71   32   69 1
    72   33   70 1
    73   33   71 1
    74   33   72 1
    75   34   73 1
    76   35   74 1
    77   36   75 1
    78   40   76 1
    79   40   77 1
    80   41   78 1
    81   41   79 1
    82   41   80 1
    83   42   81 1
    84   43   82 1
@<TRIPOS>SUBSTRUCTURE
     1 <0>         1 GROUP 0 A     ****
@<TRIPOS>MOLECULE
MiniDrugBank_312
   44    44     1     0     0
SMALL
NO_CHARGES

@<TRIPOS>ATOM
      1 O1         -2.5995   -1.9253    0.6728 O.2       1 <0>        0.00000
      2 C1         -1.4166   -1.5956    0.6374 C.2       1 <0>        0.00000
      3 C2         -0.2822   -2.4863    1.1340 C.3       1 <0>        0.00000
      4 C3         -0.2115   -3.8296    0.3774 C.3       1 <0>        0.00000
      5 C4          0.0174   -3.6989   -1.1541 C.3       1 <0>        0.00000
      6 C5          0.0791   -5.0613   -1.8533 C.3       1 <0>        0.00000
      7 C6          1.2612   -2.8070   -1.4468 C.3       1 <0>        0.00000
      8 Cl1         2.7545   -3.5026   -0.7208 Cl        1 <0>        0.00000
      9 C7          1.5458   -2.5231   -2.9256 C.3       1 <0>        0.00000
     10 Cl2         2.5811   -1.0919   -3.1503 Cl        1 <0>        0.00000
     11 C8         -0.5114   -2.7291    2.6279 C.3       1 <0>        0.00000
     12 C9         -1.0407   -0.2898    0.0560 C.ar      1 <0>        0.00000
     13 C10        -0.3294    0.7408    0.8762 C.ar      1 <0>        0.00000
     14 N1         -0.0724    1.9402    0.2341 N.am      1 <0>        0.00000
     15 C11        -0.3985    2.1888   -1.0748 C.ar      1 <0>        0.00000
     16 C12        -1.0142    1.2572   -1.8152 C.ar      1 <0>        0.00000
     17 C13        -1.3712   -0.0190   -1.2169 C.ar      1 <0>        0.00000
     18 O2         -2.0897   -0.9047   -1.9957 O.3       1 <0>        0.00000
     19 O3         -1.2834    1.4668   -3.1507 O.3       1 <0>        0.00000
     20 C14        -2.5409    2.0620   -3.3640 C.3       1 <0>        0.00000
     21 O4         -0.0243    3.4219   -1.5540 O.3       1 <0>        0.00000
     22 C15         1.2650    3.4190   -2.1222 C.3       1 <0>        0.00000
     23 O5         -0.0123    0.5200    2.0430 O.2       1 <0>        0.00000
     24 H1          0.6702   -1.9568    1.0106 H         1 <0>        0.00000
     25 H2         -0.8602   -3.1749   -1.5534 H         1 <0>        0.00000
     26 H3          1.1223   -1.8407   -0.9474 H         1 <0>        0.00000
     27 H4         -1.1666   -4.3531    0.5196 H         1 <0>        0.00000
     28 H5          0.5582   -4.4715    0.8218 H         1 <0>        0.00000
     29 H6          0.2403   -4.9569   -2.9297 H         1 <0>        0.00000
     30 H7         -0.8374   -5.6393   -1.7007 H         1 <0>        0.00000
     31 H8          0.9183   -5.6541   -1.4787 H         1 <0>        0.00000
     32 H9          2.0300   -3.3661   -3.4266 H         1 <0>        0.00000
     33 H10         0.6134   -2.3155   -3.4614 H         1 <0>        0.00000
     34 H11         0.2754   -3.3662    3.0452 H         1 <0>        0.00000
     35 H12        -0.5203   -1.7864    3.1864 H         1 <0>        0.00000
     36 H13        -1.4716   -3.2259    2.8046 H         1 <0>        0.00000
     37 H14         0.3834    2.6780    0.7624 H         1 <0>        0.00000
     38 H15        -2.2255   -0.5315   -2.8721 H         1 <0>        0.00000
     39 H16        -2.7079    2.2075   -4.4370 H         1 <0>        0.00000
     40 H17        -2.5891    3.0280   -2.8492 H         1 <0>        0.00000
     41 H18        -3.3249    1.4079   -2.9676 H         1 <0>        0.00000
     42 H19         1.5130    4.4213   -2.4869 H         1 <0>        0.00000
     43 H20         1.3050    2.7039   -2.9507 H         1 <0>        0.00000
     44 H21         1.9956    3.1253   -1.3614 H         1 <0>        0.00000
@<TRIPOS>BOND
     1    1    2 2
     2    2    3 1
     3    2   12 1
     4    3    4 1
     5    3   11 1
     6    3   24 1
     7    4    5 1
     8    5    6 1
     9    5    7 1
    10    5   25 1
    11    7    8 1
    12    7    9 1
    13    7   26 1
    14    9   10 1
    15   12   13 1
    16   12   17 2
    17   13   14 am
    18   13   23 2
    19   14   15 1
    20   15   16 2
    21   15   21 1
    22   16   17 1
    23   16   19 1
    24   17   18 1
    25   19   20 1
    26   21   22 1
    27    4   27 1
    28    4   28 1
    29    6   29 1
    30    6   30 1
    31    6   31 1
    32    9   32 1
    33    9   33 1
    34   11   34 1
    35   11   35 1
    36   11   36 1
    37   14   37 1
    38   18   38 1
    39   20   39 1
    40   20   40 1
    41   20   41 1
    42   22   42 1
    43   22   43 1
    44   22   44 1
@<TRIPOS>SUBSTRUCTURE
     1 <0>         1 GROUP 0 A     ****
@<TRIPOS>MOLECULE
MiniDrugBank_313
   54    58     1     0     0
SMALL
NO_CHARGES

@<TRIPOS>ATOM
      1 O1         -6.8615    3.9426    1.4998 O.3       1 <0>        0.00000
      2 C1         -5.5400    3.6760    1.3128 C.ar      1 <0>        0.00000
      3 C2         -4.8080    4.4018    0.3731 C.ar      1 <0>        0.00000
      4 C3         -3.4535    4.1290    0.1823 C.ar      1 <0>        0.00000
      5 C4         -2.8309    3.1304    0.9313 C.ar      1 <0>        0.00000
      6 C5         -1.3682    2.8354    0.7252 C.3       1 <0>        0.00000
      7 C6         -1.1497    1.7744   -0.3441 C.3       1 <0>        0.00000
      8 O2         -1.6956    2.2419   -1.5669 O.3       1 <0>        0.00000
      9 N1         -1.6636    0.4675    0.1617 N.2       1 <0>        0.00000
     10 C7         -0.6120   -0.2822    0.1974 C.2       1 <0>        0.00000
     11 N2          0.5610    0.2485   -0.1916 N.am      1 <0>        0.00000
     12 C8          1.7197   -0.4655   -0.1918 C.2       1 <0>        0.00000
     13 C9          1.6929   -1.7482    0.2211 C.2       1 <0>        0.00000
     14 N3          0.5346   -2.3855    0.6366 N.2       1 <0>        0.00000
     15 C10        -0.5747   -1.7077    0.6354 C.2       1 <0>        0.00000
     16 C11        -1.8626   -2.3344    1.0755 C.3       1 <0>        0.00000
     17 C12        -2.6040   -2.9822   -0.0607 C.ar      1 <0>        0.00000
     18 C13        -3.5264   -2.2443   -0.8025 C.ar      1 <0>        0.00000
     19 C14        -4.2140   -2.8454   -1.8568 C.ar      1 <0>        0.00000
     20 C15        -3.9793   -4.1845   -2.1692 C.ar      1 <0>        0.00000
     21 C16        -3.0568   -4.9224   -1.4273 C.ar      1 <0>        0.00000
     22 C17        -2.3692   -4.3212   -0.3731 C.ar      1 <0>        0.00000
     23 C18         2.9403   -2.5452    0.2173 C.ar      1 <0>        0.00000
     24 C19         4.0327   -2.1331    0.9804 C.ar      1 <0>        0.00000
     25 C20         5.2087   -2.8833    0.9766 C.ar      1 <0>        0.00000
     26 C21         5.2922   -4.0455    0.2098 C.ar      1 <0>        0.00000
     27 O3          6.4398   -4.7776    0.2062 O.3       1 <0>        0.00000
     28 C22         4.1997   -4.4576   -0.5532 C.ar      1 <0>        0.00000
     29 C23         3.0237   -3.7075   -0.5494 C.ar      1 <0>        0.00000
     30 C24         0.3437    1.5411   -0.5668 C.2       1 <0>        0.00000
     31 O4          1.1341    2.3599   -1.0089 O.2       1 <0>        0.00000
     32 C25        -3.5629    2.4047    1.8710 C.ar      1 <0>        0.00000
     33 C26        -4.9174    2.6775    2.0618 C.ar      1 <0>        0.00000
     34 H1         -7.1549    4.6601    0.9111 H         1 <0>        0.00000
     35 H2         -5.2877    5.1806   -0.2135 H         1 <0>        0.00000
     36 H3         -2.8912    4.6993   -0.5521 H         1 <0>        0.00000
     37 H4         -0.8415    3.7562    0.4465 H         1 <0>        0.00000
     38 H5         -0.9213    2.5057    1.6711 H         1 <0>        0.00000
     39 H6         -1.5417    1.5468   -2.2274 H         1 <0>        0.00000
     40 H7          2.6161    0.0447   -0.5248 H         1 <0>        0.00000
     41 H8         -2.4923   -1.5686    1.5391 H         1 <0>        0.00000
     42 H9         -1.6497   -3.0683    1.8585 H         1 <0>        0.00000
     43 H10        -3.7164   -1.2006   -0.5665 H         1 <0>        0.00000
     44 H11        -4.9318   -2.2708   -2.4347 H         1 <0>        0.00000
     45 H12        -4.5149   -4.6523   -2.9901 H         1 <0>        0.00000
     46 H13        -2.8741   -5.9650   -1.6704 H         1 <0>        0.00000
     47 H14        -1.6520   -4.9034    0.1994 H         1 <0>        0.00000
     48 H15         3.9824   -1.2288    1.5821 H         1 <0>        0.00000
     49 H16         6.0564   -2.5561    1.5727 H         1 <0>        0.00000
     50 H17         7.1035   -4.3653    0.7817 H         1 <0>        0.00000
     51 H18         4.2591   -5.3616   -1.1533 H         1 <0>        0.00000
     52 H19         2.1812   -4.0420   -1.1498 H         1 <0>        0.00000
     53 H20        -3.0862    1.6244    2.4589 H         1 <0>        0.00000
     54 H21        -5.4825    2.1085    2.7952 H         1 <0>        0.00000
@<TRIPOS>BOND
     1    1    2 1
     2    2    3 ar
     3    3    4 ar
     4    4    5 ar
     5    5    6 1
     6    6    7 1
     7    7    8 1
     8    7    9 1
     9    9   10 2
    10   10   11 1
    11   11   12 1
    12   12   13 2
    13   13   14 1
    14   14   15 2
    15   10   15 1
    16   15   16 1
    17   16   17 1
    18   17   18 ar
    19   18   19 ar
    20   19   20 ar
    21   20   21 ar
    22   21   22 ar
    23   17   22 ar
    24   13   23 1
    25   23   24 ar
    26   24   25 ar
    27   25   26 ar
    28   26   27 1
    29   26   28 ar
    30   28   29 ar
    31   23   29 ar
    32   11   30 am
    33    7   30 1
    34   30   31 2
    35    5   32 ar
    36   32   33 ar
    37    2   33 ar
    38    1   34 1
    39    3   35 1
    40    4   36 1
    41    6   37 1
    42    6   38 1
    43    8   39 1
    44   12   40 1
    45   16   41 1
    46   16   42 1
    47   18   43 1
    48   19   44 1
    49   20   45 1
    50   21   46 1
    51   22   47 1
    52   24   48 1
    53   25   49 1
    54   27   50 1
    55   28   51 1
    56   29   52 1
    57   32   53 1
    58   33   54 1
@<TRIPOS>SUBSTRUCTURE
     1 <0>         1 GROUP 0 A     ****
@<TRIPOS>MOLECULE
MiniDrugBank_314
   21    20     1     0     0
SMALL
NO_CHARGES

@<TRIPOS>ATOM
      1 O1          1.1859   -3.6768   -1.5961 O.3       1 <0>        0.00000
      2 C1          0.9002   -2.2935   -1.7448 C.3       1 <0>        0.00000
      3 C2          0.4385   -1.7118   -0.4142 C.3       1 <0>        0.00000
      4 C3          0.1156   -0.2182   -0.5159 C.3       1 <0>        0.00000
      5 C4         -0.3452    0.3429    0.8309 C.3       1 <0>        0.00000
      6 C5         -0.6682    1.8345    0.7318 C.3       1 <0>        0.00000
      7 C6         -1.1248    2.3837    2.0726 C.3       1 <0>        0.00000
      8 Br1        -1.5258    4.2814    1.9057 Br        1 <0>        0.00000
      9 H1          1.4750   -4.0038   -2.4651 H         1 <0>        0.00000
     10 H2          1.7996   -1.7835   -2.1047 H         1 <0>        0.00000
     11 H3          0.1106   -2.1842   -2.4950 H         1 <0>        0.00000
     12 H4          1.2262   -1.8538    0.3356 H         1 <0>        0.00000
     13 H5         -0.4483   -2.2584   -0.0733 H         1 <0>        0.00000
     14 H6          1.0005    0.3328   -0.8562 H         1 <0>        0.00000
     15 H7         -0.6698   -0.0637   -1.2658 H         1 <0>        0.00000
     16 H8          0.4390    0.1861    1.5815 H         1 <0>        0.00000
     17 H9         -1.2333   -0.2030    1.1718 H         1 <0>        0.00000
     18 H10         0.2189    2.3797    0.3857 H         1 <0>        0.00000
     19 H11        -1.4492    1.9912   -0.0229 H         1 <0>        0.00000
     20 H12        -0.3490    2.2944    2.8379 H         1 <0>        0.00000
     21 H13        -2.0411    1.9004    2.4225 H         1 <0>        0.00000
@<TRIPOS>BOND
     1    1    2 1
     2    2    3 1
     3    3    4 1
     4    4    5 1
     5    5    6 1
     6    6    7 1
     7    7    8 1
     8    1    9 1
     9    2   10 1
    10    2   11 1
    11    3   12 1
    12    3   13 1
    13    4   14 1
    14    4   15 1
    15    5   16 1
    16    5   17 1
    17    6   18 1
    18    6   19 1
    19    7   20 1
    20    7   21 1
@<TRIPOS>SUBSTRUCTURE
     1 <0>         1 GROUP 0 A     ****
@<TRIPOS>MOLECULE
MiniDrugBank_315
   46    49     1     0     0
SMALL
NO_CHARGES

@<TRIPOS>ATOM
      1 C1         -1.8360   -0.6352   -4.5144 C.ar      1 <0>        0.00000
      2 C2         -2.1990   -0.8364   -5.8561 C.ar      1 <0>        0.00000
      3 C3         -2.7871   -2.0379   -6.2838 C.ar      1 <0>        0.00000
      4 C4         -3.1414   -2.2206   -7.6208 C.ar      1 <0>        0.00000
      5 C5         -2.9134   -1.2071   -8.5469 C.ar      1 <0>        0.00000
      6 C6         -2.3302   -0.0069   -8.1395 C.ar      1 <0>        0.00000
      7 C7         -1.9671    0.1943   -6.7979 C.ar      1 <0>        0.00000
      8 C8         -1.3790    1.3957   -6.3702 C.ar      1 <0>        0.00000
      9 C9         -1.0246    1.5784   -5.0332 C.ar      1 <0>        0.00000
     10 C10        -1.2527    0.5649   -4.1071 C.ar      1 <0>        0.00000
     11 C11        -0.8687    0.7637   -2.6608 C.3       1 <0>        0.00000
     12 C12         0.1065   -0.2709   -2.1365 C.3       1 <0>        0.00000
     13 N1         -2.0056    0.6532   -1.7393 N.3       1 <0>        0.00000
     14 O1         -1.4573    0.1864   -0.4631 O.3       1 <0>        0.00000
     15 C13        -0.0606   -0.1025   -0.6362 C.3       1 <0>        0.00000
     16 O2          0.7657    0.9952   -0.2187 O.3       1 <0>        0.00000
     17 C14         0.6298    1.3206    1.1682 C.3       1 <0>        0.00000
     18 C15         1.5088    2.5408    1.4274 C.3       1 <0>        0.00000
     19 O3          1.0576    3.6029    0.6072 O.3       1 <0>        0.00000
     20 C16         1.0245    0.1291    2.0476 C.3       1 <0>        0.00000
     21 O4          0.7451    0.4091    3.4168 O.3       1 <0>        0.00000
     22 C17         0.2447   -1.1255    1.6522 C.3       1 <0>        0.00000
     23 O5          0.8111   -2.2565    2.3172 O.3       1 <0>        0.00000
     24 C18         0.3321   -1.3623    0.1451 C.3       1 <0>        0.00000
     25 O6         -0.5234   -2.4453   -0.2127 O.3       1 <0>        0.00000
     26 H1         -0.4270    1.7808   -2.5682 H         1 <0>        0.00000
     27 H2         -0.4083    1.6178    1.3690 H         1 <0>        0.00000
     28 H3          2.0989   -0.0736    1.9636 H         1 <0>        0.00000
     29 H4         -0.7989   -1.0619    1.9831 H         1 <0>        0.00000
     30 H5          1.3619   -1.6544   -0.1090 H         1 <0>        0.00000
     31 H6         -2.0096   -1.4195   -3.7794 H         1 <0>        0.00000
     32 H7         -2.9746   -2.8442   -5.5774 H         1 <0>        0.00000
     33 H8         -3.5947   -3.1549   -7.9387 H         1 <0>        0.00000
     34 H9         -3.1891   -1.3503   -9.5877 H         1 <0>        0.00000
     35 H10        -2.1612    0.7716   -8.8806 H         1 <0>        0.00000
     36 H11        -1.1904    2.2010   -7.0772 H         1 <0>        0.00000
     37 H12        -0.5694    2.5160   -4.7248 H         1 <0>        0.00000
     38 H13        -0.1897   -1.2701   -2.4769 H         1 <0>        0.00000
     39 H14         1.1303   -0.0819   -2.4775 H         1 <0>        0.00000
     40 H15        -2.3292    1.5858   -1.4842 H         1 <0>        0.00000
     41 H16         2.5454    2.3108    1.1820 H         1 <0>        0.00000
     42 H17         1.4349    2.8366    2.4737 H         1 <0>        0.00000
     43 H18         1.6306    4.3674    0.7888 H         1 <0>        0.00000
     44 H19         1.0139   -0.3754    3.9195 H         1 <0>        0.00000
     45 H20         0.2900   -3.0245    2.0399 H         1 <0>        0.00000
     46 H21        -1.4205   -2.1849    0.0467 H         1 <0>        0.00000
@<TRIPOS>BOND
     1    1   10 ar
     2    1    2 ar
     3    2    7 ar
     4    2    3 ar
     5    3    4 ar
     6    4    5 ar
     7    5    6 ar
     8    7    8 ar
     9    6    7 ar
    10    8    9 ar
    11    9   10 ar
    12   10   11 1
    13   11   26 1
    14   11   12 1
    15   11   13 1
    16   13   14 1
    17   15   16 1
    18   14   15 1
    19   12   15 1
    20   17   18 1
    21   16   17 1
    22   17   27 1
    23   18   19 1
    24   17   20 1
    25   20   28 1
    26   20   21 1
    27   20   22 1
    28   22   24 1
    29   22   29 1
    30   22   23 1
    31   15   24 1
    32   24   30 1
    33   24   25 1
    34    1   31 1
    35    3   32 1
    36    4   33 1
    37    5   34 1
    38    6   35 1
    39    8   36 1
    40    9   37 1
    41   12   38 1
    42   12   39 1
    43   13   40 1
    44   18   41 1
    45   18   42 1
    46   19   43 1
    47   21   44 1
    48   23   45 1
    49   25   46 1
@<TRIPOS>SUBSTRUCTURE
     1 <0>         1 GROUP 0 A     ****
@<TRIPOS>MOLECULE
MiniDrugBank_316
   43    45     1     0     0
SMALL
NO_CHARGES

@<TRIPOS>ATOM
      1 C1         -1.0242    1.5808   -5.0351 C.ar      1 <0>        0.00000
      2 C2         -1.3795    1.3976   -6.3715 C.ar      1 <0>        0.00000
      3 C3         -1.9632    0.1984   -6.7799 C.ar      1 <0>        0.00000
      4 C4         -2.3410    0.0019   -8.2091 C.3       1 <0>        0.00000
      5 C5         -2.1917   -0.8176   -5.8519 C.ar      1 <0>        0.00000
      6 C6         -1.8364   -0.6344   -4.5155 C.ar      1 <0>        0.00000
      7 C7         -1.2527    0.5649   -4.1071 C.ar      1 <0>        0.00000
      8 C8         -0.8687    0.7637   -2.6608 C.3       1 <0>        0.00000
      9 C9          0.1065   -0.2709   -2.1365 C.3       1 <0>        0.00000
     10 N1         -2.0056    0.6532   -1.7393 N.3       1 <0>        0.00000
     11 O1         -1.4573    0.1864   -0.4631 O.3       1 <0>        0.00000
     12 C10        -0.0606   -0.1025   -0.6362 C.3       1 <0>        0.00000
     13 O2          0.7657    0.9952   -0.2187 O.3       1 <0>        0.00000
     14 C11         0.6298    1.3206    1.1682 C.3       1 <0>        0.00000
     15 C12         1.5088    2.5408    1.4274 C.3       1 <0>        0.00000
     16 O3          1.0576    3.6029    0.6072 O.3       1 <0>        0.00000
     17 C13         1.0245    0.1291    2.0476 C.3       1 <0>        0.00000
     18 O4          0.7451    0.4091    3.4168 O.3       1 <0>        0.00000
     19 C14         0.2447   -1.1255    1.6522 C.3       1 <0>        0.00000
     20 O5          0.8111   -2.2565    2.3172 O.3       1 <0>        0.00000
     21 C15         0.3321   -1.3623    0.1451 C.3       1 <0>        0.00000
     22 O6         -0.5234   -2.4453   -0.2127 O.3       1 <0>        0.00000
     23 H1         -0.4270    1.7808   -2.5682 H         1 <0>        0.00000
     24 H2         -0.4083    1.6178    1.3690 H         1 <0>        0.00000
     25 H3          2.0989   -0.0736    1.9636 H         1 <0>        0.00000
     26 H4         -0.7989   -1.0619    1.9831 H         1 <0>        0.00000
     27 H5          1.3619   -1.6544   -0.1090 H         1 <0>        0.00000
     28 H6         -0.5701    2.5187   -4.7259 H         1 <0>        0.00000
     29 H7         -1.1979    2.1948   -7.0876 H         1 <0>        0.00000
     30 H8         -1.5054   -0.4365   -8.7683 H         1 <0>        0.00000
     31 H9         -3.2097   -0.6625   -8.3040 H         1 <0>        0.00000
     32 H10        -2.6158    0.9533   -8.6830 H         1 <0>        0.00000
     33 H11        -2.6459   -1.7552   -6.1604 H         1 <0>        0.00000
     34 H12        -2.0181   -1.4312   -3.7990 H         1 <0>        0.00000
     35 H13        -0.1897   -1.2701   -2.4769 H         1 <0>        0.00000
     36 H14         1.1303   -0.0819   -2.4775 H         1 <0>        0.00000
     37 H15        -2.3292    1.5858   -1.4842 H         1 <0>        0.00000
     38 H16         2.5454    2.3108    1.1820 H         1 <0>        0.00000
     39 H17         1.4349    2.8366    2.4737 H         1 <0>        0.00000
     40 H18         1.6306    4.3674    0.7888 H         1 <0>        0.00000
     41 H19         1.0139   -0.3754    3.9195 H         1 <0>        0.00000
     42 H20         0.2900   -3.0245    2.0399 H         1 <0>        0.00000
     43 H21        -1.4205   -2.1849    0.0467 H         1 <0>        0.00000
@<TRIPOS>BOND
     1    1    7 ar
     2    1    2 ar
     3    2    3 ar
     4    3    5 ar
     5    3    4 1
     6    5    6 ar
     7    6    7 ar
     8    7    8 1
     9    8   23 1
    10    8    9 1
    11    8   10 1
    12   10   11 1
    13   12   13 1
    14   11   12 1
    15    9   12 1
    16   14   15 1
    17   13   14 1
    18   14   24 1
    19   15   16 1
    20   14   17 1
    21   17   25 1
    22   17   18 1
    23   17   19 1
    24   19   21 1
    25   19   26 1
    26   19   20 1
    27   12   21 1
    28   21   27 1
    29   21   22 1
    30    1   28 1
    31    2   29 1
    32    4   30 1
    33    4   31 1
    34    4   32 1
    35    5   33 1
    36    6   34 1
    37    9   35 1
    38    9   36 1
    39   10   37 1
    40   15   38 1
    41   15   39 1
    42   16   40 1
    43   18   41 1
    44   20   42 1
    45   22   43 1
@<TRIPOS>SUBSTRUCTURE
     1 <0>         1 GROUP 0 A     ****
@<TRIPOS>MOLECULE
MiniDrugBank_317
   29    30     1     0     0
SMALL
NO_CHARGES

@<TRIPOS>ATOM
      1 C1         -4.2114   -0.6117    4.5398 C.1       1 <0>        0.00000
      2 C2         -3.1163   -1.1039    4.5309 C.1       1 <0>        0.00000
      3 C3         -1.7784   -1.7005    4.5232 C.3       1 <0>        0.00000
      4 N1         -1.7903   -2.9860    3.8261 N.3       1 <0>        0.00000
      5 C4         -2.3008   -4.0386    4.7037 C.3       1 <0>        0.00000
      6 C5         -0.4728   -3.3163    3.3599 C.3       1 <0>        0.00000
      7 C6          0.5383   -3.4208    4.5174 C.3       1 <0>        0.00000
      8 C7          1.9110   -3.0589    3.9337 C.3       1 <0>        0.00000
      9 C8          1.5206   -2.1112    2.8434 C.ar      1 <0>        0.00000
     10 C9          0.1658   -2.2531    2.5138 C.ar      1 <0>        0.00000
     11 C10        -0.3932   -1.5075    1.4870 C.ar      1 <0>        0.00000
     12 C11         2.3361   -1.2212    2.1639 C.ar      1 <0>        0.00000
     13 C12         1.7733   -0.4551    1.1417 C.ar      1 <0>        0.00000
     14 C13         0.4187   -0.5980    0.8050 C.ar      1 <0>        0.00000
     15 H1         -0.4932   -4.2907    2.8105 H         1 <0>        0.00000
     16 H2         -5.1829   -0.1757    4.5479 H         1 <0>        0.00000
     17 H3         -1.4237   -1.8521    5.5474 H         1 <0>        0.00000
     18 H4         -1.0706   -1.0289    4.0269 H         1 <0>        0.00000
     19 H5         -2.2984   -4.9784    4.1620 H         1 <0>        0.00000
     20 H6         -3.3118   -3.7865    5.0059 H         1 <0>        0.00000
     21 H7         -1.6608   -4.1113    5.5766 H         1 <0>        0.00000
     22 H8          0.2800   -2.8066    5.3867 H         1 <0>        0.00000
     23 H9          0.5660   -4.4626    4.8678 H         1 <0>        0.00000
     24 H10         2.5367   -2.5471    4.6727 H         1 <0>        0.00000
     25 H11         2.4286   -3.9442    3.5529 H         1 <0>        0.00000
     26 H12        -1.4383   -1.6222    1.2163 H         1 <0>        0.00000
     27 H13         3.3862   -1.1179    2.4161 H         1 <0>        0.00000
     28 H14         2.3877    0.2616    0.6040 H         1 <0>        0.00000
     29 H15        -0.0031    0.0093    0.0084 H         1 <0>        0.00000
@<TRIPOS>BOND
     1    1    2 3
     2    2    3 1
     3    3    4 1
     4    4    5 1
     5    4    6 1
     6    6    7 1
     7    6   10 1
     8    6   15 1
     9    7    8 1
    10    8    9 1
    11    9   10 ar
    12    9   12 ar
    13   10   11 ar
    14   11   14 ar
    15   12   13 ar
    16   13   14 ar
    17    1   16 1
    18    3   17 1
    19    3   18 1
    20    5   19 1
    21    5   20 1
    22    5   21 1
    23    7   22 1
    24    7   23 1
    25    8   24 1
    26    8   25 1
    27   11   26 1
    28   12   27 1
    29   13   28 1
    30   14   29 1
@<TRIPOS>SUBSTRUCTURE
     1 <0>         1 GROUP 0 A     ****
@<TRIPOS>MOLECULE
MiniDrugBank_318
   34    37     1     0     0
SMALL
NO_CHARGES

@<TRIPOS>ATOM
      1 N1         -1.5192    2.8568    1.0279 N.pl3     1 <0>        0.00000
      2 C1         -0.8710    1.7212    0.6140 C.ar      1 <0>        0.00000
      3 C2         -1.8844    0.7811    0.4615 C.ar      1 <0>        0.00000
      4 N2         -3.1092    1.3259    0.7723 N.ar      1 <0>        0.00000
      5 C3         -2.8535    2.5706    1.1074 C.ar      1 <0>        0.00000
      6 N3         -3.6967    3.5508    1.4996 N.pl3     1 <0>        0.00000
      7 C4         -5.1461    3.4025    1.6338 C.3       1 <0>        0.00000
      8 C5         -5.7755    4.6771    2.0864 C.ar      1 <0>        0.00000
      9 C6         -1.5557   -0.5189    0.0383 C.ar      1 <0>        0.00000
     10 C7         -0.2124   -0.8387   -0.2210 C.ar      1 <0>        0.00000
     11 C8          0.7763    0.1436   -0.0528 C.ar      1 <0>        0.00000
     12 C9          2.1801   -0.2238   -0.3333 C.ar      1 <0>        0.00000
     13 O1          3.0925    0.5846   -0.2069 O.2       1 <0>        0.00000
     14 N4          2.3563   -1.5355   -0.7416 N.am      1 <0>        0.00000
     15 C10         1.3295   -2.4590   -0.8879 C.ar      1 <0>        0.00000
     16 N5          1.7076   -3.7085   -1.3026 N.pl3     1 <0>        0.00000
     17 N6          0.0884   -2.1471   -0.6436 N.ar      1 <0>        0.00000
     18 C11         0.4744    1.4476    0.3685 C.ar      1 <0>        0.00000
     19 C12        -6.0111    5.1070    3.3738 C.ar      1 <0>        0.00000
     20 C13        -6.6336    6.3882    3.4048 C.ar      1 <0>        0.00000
     21 C14        -6.8500    6.8890    2.1397 C.ar      1 <0>        0.00000
     22 S1         -6.3039    5.8161    0.9220 S.3       1 <0>        0.00000
     23 H1         -1.0877    3.7472    1.2371 H         1 <0>        0.00000
     24 H2         -3.3269    4.4854    1.7280 H         1 <0>        0.00000
     25 H3         -5.3120    2.5957    2.3443 H         1 <0>        0.00000
     26 H4         -5.5154    3.0847    0.6616 H         1 <0>        0.00000
     27 H5         -2.3357   -1.2651   -0.0857 H         1 <0>        0.00000
     28 H6          3.3020   -1.8433   -0.9483 H         1 <0>        0.00000
     29 H7          1.0030   -4.3999   -1.4200 H         1 <0>        0.00000
     30 H8          2.6726   -3.8779   -1.4710 H         1 <0>        0.00000
     31 H9          1.2335    2.2103    0.5000 H         1 <0>        0.00000
     32 H10        -5.7502    4.5339    4.2545 H         1 <0>        0.00000
     33 H11        -6.9080    6.9166    4.3084 H         1 <0>        0.00000
     34 H12        -7.3024    7.8335    1.8725 H         1 <0>        0.00000
@<TRIPOS>BOND
     1    1    2 1
     2    1    5 1
     3    2    3 ar
     4    2   18 ar
     5    3    4 1
     6    3    9 ar
     7    4    5 2
     8    5    6 1
     9    6    7 1
    10    7    8 1
    11    8   19 2
    12    8   22 1
    13    9   10 ar
    14   10   11 ar
    15   10   17 1
    16   11   12 1
    17   11   18 ar
    18   12   13 2
    19   12   14 am
    20   14   15 1
    21   15   16 1
    22   15   17 2
    23   19   20 1
    24   20   21 2
    25   21   22 1
    26    1   23 1
    27    6   24 1
    28    7   25 1
    29    7   26 1
    30    9   27 1
    31   14   28 1
    32   16   29 1
    33   16   30 1
    34   18   31 1
    35   19   32 1
    36   20   33 1
    37   21   34 1
@<TRIPOS>SUBSTRUCTURE
     1 <0>         1 GROUP 0 A     ****
@<TRIPOS>MOLECULE
MiniDrugBank_319
   56    58     1     0     0
SMALL
NO_CHARGES

@<TRIPOS>ATOM
      1 C1         -2.7567   -4.5474   -1.2186 C.3       1 <0>        0.00000
      2 S1         -4.0143   -4.0256   -2.4088 S.3       1 <0>        0.00000
      3 C2         -2.9472   -3.8414   -3.8669 C.3       1 <0>        0.00000
      4 C3         -3.7667   -3.3910   -5.0769 C.3       1 <0>        0.00000
      5 C4         -2.8952   -3.2247   -6.3301 C.3       1 <0>        0.00000
      6 N1         -3.7040   -2.7937   -7.4711 N.3       1 <0>        0.00000
      7 C5         -1.8347   -2.1546   -6.1236 C.2       1 <0>        0.00000
      8 O1         -2.1028   -0.9954   -5.8235 O.2       1 <0>        0.00000
      9 N2         -0.4962   -2.6198   -6.3356 N.am      1 <0>        0.00000
     10 S2          0.9029   -1.6419   -6.1760 S.o2      1 <0>        0.00000
     11 O2          0.7201   -0.4751   -7.0200 O.2       1 <0>        0.00000
     12 O3          2.0717   -2.4871   -6.3401 O.2       1 <0>        0.00000
     13 O4          0.8422   -1.1521   -4.6163 O.3       1 <0>        0.00000
     14 C6          0.8608   -2.1300   -3.5879 C.3       1 <0>        0.00000
     15 C7          0.3102   -1.5176   -2.3127 C.3       1 <0>        0.00000
     16 O5         -1.0387   -1.0743   -2.5303 O.3       1 <0>        0.00000
     17 C8         -1.2372    0.1506   -1.8058 C.3       1 <0>        0.00000
     18 C9          0.0348    0.4140   -1.0152 C.3       1 <0>        0.00000
     19 O6          0.3140    1.7990   -0.9216 O.3       1 <0>        0.00000
     20 C10         1.0771   -0.2902   -1.8545 C.3       1 <0>        0.00000
     21 O7          2.2143   -0.6521   -1.0952 O.3       1 <0>        0.00000
     22 N3         -2.3874    0.0101   -0.9585 N.pl3     1 <0>        0.00000
     23 C11        -2.5529   -0.9064    0.0389 C.2       1 <0>        0.00000
     24 N4         -3.7520   -1.0334    0.5322 N.2       1 <0>        0.00000
     25 C12        -4.4782   -0.0707   -0.1530 C.2       1 <0>        0.00000
     26 C13        -5.6243    0.5106    0.2606 C.2       1 <0>        0.00000
     27 N5         -6.3383    0.0484    1.3326 N.pl3     1 <0>        0.00000
     28 N6         -5.9782    1.6680   -0.4204 N.pl3     1 <0>        0.00000
     29 C14        -5.0915    2.3091   -1.2532 C.2       1 <0>        0.00000
     30 N7         -3.9600    1.8709   -1.7013 N.2       1 <0>        0.00000
     31 C15        -3.7071    0.4543   -1.3716 C.3       1 <0>        0.00000
     32 H1         -3.2164   -4.7154   -0.2416 H         1 <0>        0.00000
     33 H2         -1.9914   -3.7731   -1.1239 H         1 <0>        0.00000
     34 H3         -2.2874   -5.4744   -1.5569 H         1 <0>        0.00000
     35 H4         -2.1681   -3.1086   -3.6344 H         1 <0>        0.00000
     36 H5         -2.4631   -4.8043   -4.0551 H         1 <0>        0.00000
     37 H6         -4.2498   -2.4308   -4.8504 H         1 <0>        0.00000
     38 H7         -4.5672   -4.1178   -5.2710 H         1 <0>        0.00000
     39 H8         -2.4201   -4.1767   -6.5902 H         1 <0>        0.00000
     40 H9         -3.8998   -1.8220   -7.5629 H         1 <0>        0.00000
     41 H10        -4.1911   -3.4920   -7.9871 H         1 <0>        0.00000
     42 H11        -0.3663   -3.6045   -6.6008 H         1 <0>        0.00000
     43 H12         0.2486   -2.9817   -3.8997 H         1 <0>        0.00000
     44 H13         1.8916   -2.4655   -3.4385 H         1 <0>        0.00000
     45 H14         0.2919   -2.2842   -1.5260 H         1 <0>        0.00000
     46 H15        -1.4336    0.9369   -2.5452 H         1 <0>        0.00000
     47 H16        -0.0039    0.0023    0.0011 H         1 <0>        0.00000
     48 H17        -0.4423    2.2122   -0.4715 H         1 <0>        0.00000
     49 H18         1.3978    0.3393   -2.6938 H         1 <0>        0.00000
     50 H19         2.5910    0.1688   -0.7340 H         1 <0>        0.00000
     51 H20        -1.6707   -1.4910    0.3395 H         1 <0>        0.00000
     52 H21        -7.1751    0.5239    1.5841 H         1 <0>        0.00000
     53 H22        -5.9953   -0.7467    1.8223 H         1 <0>        0.00000
     54 H23        -6.8303    2.1243   -0.1123 H         1 <0>        0.00000
     55 H24        -5.4207    3.3307   -1.5009 H         1 <0>        0.00000
     56 H25        -4.0056   -0.1441   -2.2438 H         1 <0>        0.00000
@<TRIPOS>BOND
     1    1    2 1
     2    2    3 1
     3    3    4 1
     4    4    5 1
     5    5    6 1
     6    5    7 1
     7    7    8 2
     8    7    9 am
     9    9   10 1
    10   10   11 2
    11   10   12 2
    12   10   13 1
    13   13   14 1
    14   14   15 1
    15   15   16 1
    16   16   17 1
    17   17   18 1
    18   18   19 1
    19   18   20 1
    20   15   20 1
    21   20   21 1
    22   17   22 1
    23   22   23 1
    24   23   24 2
    25   24   25 1
    26   25   26 2
    27   26   27 1
    28   26   28 1
    29   28   29 1
    30   29   30 2
    31   30   31 1
    32   22   31 1
    33   25   31 1
    34    1   32 1
    35    1   33 1
    36    1   34 1
    37    3   35 1
    38    3   36 1
    39    4   37 1
    40    4   38 1
    41    5   39 1
    42    6   40 1
    43    6   41 1
    44    9   42 1
    45   14   43 1
    46   14   44 1
    47   15   45 1
    48   17   46 1
    49   18   47 1
    50   19   48 1
    51   20   49 1
    52   21   50 1
    53   23   51 1
    54   27   52 1
    55   27   53 1
    56   28   54 1
    57   29   55 1
    58   31   56 1
@<TRIPOS>SUBSTRUCTURE
     1 <0>         1 GROUP 0 A     ****
@<TRIPOS>MOLECULE
MiniDrugBank_320
   16    16     1     0     0
SMALL
NO_CHARGES

@<TRIPOS>ATOM
      1 O1          3.2312   -1.0011   -2.0025 O.3       1 <0>        0.00000
      2 C1          1.9522   -1.0284   -1.5678 C.2       1 <0>        0.00000
      3 O2          0.9784   -1.0432   -2.3023 O.2       1 <0>        0.00000
      4 C2          1.8851   -1.0363   -0.1124 C.ar      1 <0>        0.00000
      5 C3          0.8066   -0.4630    0.5610 C.ar      1 <0>        0.00000
      6 O3         -0.1974    0.1136   -0.1629 O.3       1 <0>        0.00000
      7 C4          0.7638   -0.4841    1.9551 C.ar      1 <0>        0.00000
      8 I1         -0.8284    0.3594    3.0158 I         1 <0>        0.00000
      9 C5          1.7997   -1.0786    2.6757 C.ar      1 <0>        0.00000
     10 C6          2.8783   -1.6520    2.0022 C.ar      1 <0>        0.00000
     11 I2          4.4226   -2.5358    3.0745 I         1 <0>        0.00000
     12 C7          2.9210   -1.6309    0.6081 C.ar      1 <0>        0.00000
     13 H1          3.2871   -0.9946   -2.9819 H         1 <0>        0.00000
     14 H2         -0.8747    0.4681    0.4325 H         1 <0>        0.00000
     15 H3          1.7688   -1.0968    3.7632 H         1 <0>        0.00000
     16 H4          3.7576   -2.0761    0.0740 H         1 <0>        0.00000
@<TRIPOS>BOND
     1    1    2 1
     2    2    3 2
     3    2    4 1
     4    4    5 ar
     5    5    6 1
     6    5    7 ar
     7    7    8 1
     8    7    9 ar
     9    9   10 ar
    10   10   11 1
    11   10   12 ar
    12    4   12 ar
    13    1   13 1
    14    6   14 1
    15    9   15 1
    16   12   16 1
@<TRIPOS>SUBSTRUCTURE
     1 <0>         1 GROUP 0 A     ****
@<TRIPOS>MOLECULE
MiniDrugBank_321
   45    49     1     0     0
SMALL
NO_CHARGES

@<TRIPOS>ATOM
      1 C1         -0.7939   -0.0807   -1.3925 C.ar      1 <0>        0.00000
      2 C2         -1.0528   -1.3935   -1.7141 C.ar      1 <0>        0.00000
      3 N1         -1.5320   -1.3956   -3.0247 N.pl3     1 <0>        0.00000
      4 N2         -1.5792   -0.1293   -3.5281 N.ar      1 <0>        0.00000
      5 C3         -1.1345    0.6445   -2.5399 C.ar      1 <0>        0.00000
      6 N3         -0.9139   -2.5429   -1.0001 N.ar      1 <0>        0.00000
      7 C4         -1.2422   -3.6517   -1.5978 C.ar      1 <0>        0.00000
      8 C5         -1.7775   -3.7449   -2.9926 C.ar      1 <0>        0.00000
      9 C6         -1.9014   -2.5886   -3.6658 C.ar      1 <0>        0.00000
     10 N4         -2.3754   -2.4977   -4.9437 N.pl3     1 <0>        0.00000
     11 C7         -1.1014   -4.9334   -0.8574 C.ar      1 <0>        0.00000
     12 C8         -2.7725   -3.6767   -5.6618 C.3       1 <0>        0.00000
     13 C9         -3.2617   -3.3550   -7.0447 C.ar      1 <0>        0.00000
     14 C10        -4.5989   -3.0837   -7.2854 C.ar      1 <0>        0.00000
     15 N5         -5.1037   -2.7871   -8.5040 N.ar      1 <0>        0.00000
     16 C11        -4.2224   -2.7620   -9.5288 C.ar      1 <0>        0.00000
     17 C12        -2.8674   -3.0181   -9.3932 C.ar      1 <0>        0.00000
     18 C13        -2.3859   -3.3195   -8.1241 C.ar      1 <0>        0.00000
     19 C14        -0.8270   -6.1125   -1.5503 C.ar      1 <0>        0.00000
     20 C15        -0.6962   -7.3152   -0.8558 C.ar      1 <0>        0.00000
     21 C16        -0.8397   -7.3387    0.5314 C.ar      1 <0>        0.00000
     22 C17        -1.1142   -6.1595    1.2243 C.ar      1 <0>        0.00000
     23 C18        -1.2450   -4.9569    0.5298 C.ar      1 <0>        0.00000
     24 C19        -0.2589    0.4596   -0.0874 C.3       1 <0>        0.00000
     25 C20        -1.0227    0.2397    1.1973 C.3       1 <0>        0.00000
     26 C21        -0.9537    1.6108    0.6014 C.3       1 <0>        0.00000
     27 H1         -1.0794    1.7114   -2.7036 H         1 <0>        0.00000
     28 H2         -2.0383   -4.7088   -3.4125 H         1 <0>        0.00000
     29 H3         -2.4285   -1.5893   -5.3371 H         1 <0>        0.00000
     30 H4         -3.5561   -4.1776   -5.0824 H         1 <0>        0.00000
     31 H5         -1.9121   -4.3536   -5.6975 H         1 <0>        0.00000
     32 H6         -5.3292   -3.0965   -6.4822 H         1 <0>        0.00000
     33 H7         -4.6473   -2.5224  -10.4981 H         1 <0>        0.00000
     34 H8         -2.2031   -2.9844  -10.2491 H         1 <0>        0.00000
     35 H9         -1.3279   -3.5249   -7.9856 H         1 <0>        0.00000
     36 H10        -0.7138   -6.1058   -2.6313 H         1 <0>        0.00000
     37 H11        -0.4821   -8.2332   -1.3952 H         1 <0>        0.00000
     38 H12        -0.7379   -8.2748    1.0725 H         1 <0>        0.00000
     39 H13        -1.2264   -6.1786    2.3043 H         1 <0>        0.00000
     40 H14        -1.4583   -4.0441    1.0803 H         1 <0>        0.00000
     41 H15         0.8429    0.4465    0.0078 H         1 <0>        0.00000
     42 H16        -1.9711   -0.2837    1.1495 H         1 <0>        0.00000
     43 H17        -0.4606    0.0563    2.1065 H         1 <0>        0.00000
     44 H18        -0.3454    2.3523    1.1077 H         1 <0>        0.00000
     45 H19        -1.8562    2.0101    0.1518 H         1 <0>        0.00000
@<TRIPOS>BOND
     1    1    2 2
     2    1   24 1
     3    2    6 1
     4    2    3 1
     5    4    5 2
     6    3    4 1
     7    1    5 1
     8    6    7 2
     9    7   11 1
    10    7    8 1
    11    3    9 1
    12    8    9 2
    13   10   12 1
    14    9   10 1
    15   11   23 ar
    16   11   19 ar
    17   13   18 ar
    18   12   13 1
    19   13   14 ar
    20   15   16 ar
    21   14   15 ar
    22   16   17 ar
    23   17   18 ar
    24   19   20 ar
    25   20   21 ar
    26   21   22 ar
    27   22   23 ar
    28   24   25 1
    29   24   26 1
    30   25   26 1
    31    5   27 1
    32    8   28 1
    33   10   29 1
    34   12   30 1
    35   12   31 1
    36   14   32 1
    37   16   33 1
    38   17   34 1
    39   18   35 1
    40   19   36 1
    41   20   37 1
    42   21   38 1
    43   22   39 1
    44   23   40 1
    45   24   41 1
    46   25   42 1
    47   25   43 1
    48   26   44 1
    49   26   45 1
@<TRIPOS>SUBSTRUCTURE
     1 <0>         1 GROUP 0 A     ****
@<TRIPOS>MOLECULE
MiniDrugBank_322
   12    12     1     0     0
SMALL
NO_CHARGES

@<TRIPOS>ATOM
      1 I1          1.9488   -1.0046   -2.1886 I         1 <0>        0.00000
      2 C1          1.8851   -1.0363   -0.1124 C.ar      1 <0>        0.00000
      3 C2          0.8066   -0.4630    0.5610 C.ar      1 <0>        0.00000
      4 C3          0.7638   -0.4841    1.9551 C.ar      1 <0>        0.00000
      5 C4          1.7997   -1.0786    2.6757 C.ar      1 <0>        0.00000
      6 C5          2.8783   -1.6520    2.0022 C.ar      1 <0>        0.00000
      7 C6          2.9210   -1.6309    0.6081 C.ar      1 <0>        0.00000
      8 H1         -0.0106    0.0052    0.0184 H         1 <0>        0.00000
      9 H2         -0.0759   -0.0378    2.4796 H         1 <0>        0.00000
     10 H3          1.7664   -1.0952    3.7612 H         1 <0>        0.00000
     11 H4          3.6847   -2.1149    2.5635 H         1 <0>        0.00000
     12 H5          3.7703   -2.0830    0.1027 H         1 <0>        0.00000
@<TRIPOS>BOND
     1    1    2 1
     2    2    3 ar
     3    3    4 ar
     4    4    5 ar
     5    5    6 ar
     6    6    7 ar
     7    2    7 ar
     8    3    8 1
     9    4    9 1
    10    5   10 1
    11    6   11 1
    12    7   12 1
@<TRIPOS>SUBSTRUCTURE
     1 <0>         1 GROUP 0 A     ****
@<TRIPOS>MOLECULE
MiniDrugBank_323
   33    36     1     0     0
SMALL
NO_CHARGES

@<TRIPOS>ATOM
      1 O1          0.6085    1.3411   -0.9381 O.2       1 <0>        0.00000
      2 S1         -0.2688    0.6009   -0.0491 S.o2      1 <0>        0.00000
      3 O2         -1.6673    0.4103   -0.3905 O.2       1 <0>        0.00000
      4 N1         -0.1651    1.1826    1.4732 N.2       1 <0>        0.00000
      5 C1         -0.4752    2.4171    1.6740 C.ar      1 <0>        0.00000
      6 N2         -0.4780    3.1465    2.8242 N.pl3     1 <0>        0.00000
      7 N3         -0.8727    4.4381    2.6339 N.ar      1 <0>        0.00000
      8 N4         -1.1283    4.5753    1.3921 N.ar      1 <0>        0.00000
      9 N5         -0.8953    3.3705    0.7968 N.pl3     1 <0>        0.00000
     10 C2          0.4425   -0.9887    0.0806 C.ar      1 <0>        0.00000
     11 C3         -0.3604   -2.0883    0.3842 C.ar      1 <0>        0.00000
     12 C4          1.8128   -1.1561   -0.1199 C.ar      1 <0>        0.00000
     13 C5          2.3856   -2.4243   -0.0172 C.ar      1 <0>        0.00000
     14 C6          1.5871   -3.5289    0.2864 C.ar      1 <0>        0.00000
     15 O3          2.2255   -4.7418    0.3700 O.3       1 <0>        0.00000
     16 C7          1.4748   -5.8530    0.6656 C.ar      1 <0>        0.00000
     17 C8          2.1613   -7.0666    0.7403 C.ar      1 <0>        0.00000
     18 C9          1.4703   -8.2423    1.0360 C.ar      1 <0>        0.00000
     19 C10         0.0934   -8.2081    1.2576 C.ar      1 <0>        0.00000
     20 C11        -0.5979   -6.9987    1.1845 C.ar      1 <0>        0.00000
     21 C12         0.0984   -5.8240    0.8881 C.ar      1 <0>        0.00000
     22 C13        -0.6037   -4.5342    0.8045 C.ar      1 <0>        0.00000
     23 C14         0.2177   -3.3563    0.4858 C.ar      1 <0>        0.00000
     24 O4         -1.8084   -4.4461    0.9909 O.2       1 <0>        0.00000
     25 H1         -0.2207    2.8005    3.7406 H         1 <0>        0.00000
     26 H2         -1.0318    3.2358   -0.1976 H         1 <0>        0.00000
     27 H3         -1.4274   -1.9500    0.5386 H         1 <0>        0.00000
     28 H4          2.4448   -0.3041   -0.3567 H         1 <0>        0.00000
     29 H5          3.4542   -2.5436   -0.1750 H         1 <0>        0.00000
     30 H6          3.2339   -7.1040    0.5692 H         1 <0>        0.00000
     31 H7          2.0054   -9.1858    1.0940 H         1 <0>        0.00000
     32 H8         -0.4415   -9.1252    1.4871 H         1 <0>        0.00000
     33 H9         -1.6699   -6.9916    1.3601 H         1 <0>        0.00000
@<TRIPOS>BOND
     1    1    2 2
     2    2    3 2
     3    2    4 1
     4    2   10 1
     5    4    5 2
     6    5    6 1
     7    5    9 1
     8    6    7 1
     9    7    8 2
    10    8    9 1
    11   10   11 ar
    12   10   12 ar
    13   11   23 ar
    14   12   13 ar
    15   13   14 ar
    16   14   15 1
    17   14   23 ar
    18   15   16 1
    19   16   17 ar
    20   16   21 ar
    21   17   18 ar
    22   18   19 ar
    23   19   20 ar
    24   20   21 ar
    25   21   22 1
    26   22   23 1
    27   22   24 2
    28    6   25 1
    29    9   26 1
    30   11   27 1
    31   12   28 1
    32   13   29 1
    33   17   30 1
    34   18   31 1
    35   19   32 1
    36   20   33 1
@<TRIPOS>SUBSTRUCTURE
     1 <0>         1 GROUP 0 A     ****
@<TRIPOS>MOLECULE
MiniDrugBank_324
   77    81     1     0     0
SMALL
NO_CHARGES

@<TRIPOS>ATOM
      1 C1         -4.7534    3.5889    0.0000 C.3       1 <0>        0.00000
      2 N1         -4.3409    2.8744    0.0000 N.4       1 <0>        0.00000
      3 C2         -5.0554    2.4619    0.0000 C.3       1 <0>        0.00000
      4 C3         -3.6265    3.2869    0.0000 C.3       1 <0>        0.00000
      5 C4         -3.9284    2.1599    0.0000 C.ar      1 <0>        0.00000
      6 C5         -3.1034    2.1599    0.0000 C.ar      1 <0>        0.00000
      7 C6         -2.6909    1.4455    0.0000 C.ar      1 <0>        0.00000
      8 C7         -3.1034    0.7310    0.0000 C.ar      1 <0>        0.00000
      9 C8         -2.6909    0.0165    0.0000 C.3       1 <0>        0.00000
     10 N2         -1.8659    0.0165    0.0000 N.am      1 <0>        0.00000
     11 C9         -1.4534   -0.6979    0.0000 C.2       1 <0>        0.00000
     12 O1         -1.8659   -1.4124    0.0000 O.2       1 <0>        0.00000
     13 C10        -0.6284   -0.6979    0.0000 C.ar      1 <0>        0.00000
     14 C11        -0.1435   -1.3654    0.0000 C.ar      1 <0>        0.00000
     15 C12         0.6411   -1.1104    0.0000 C.ar      1 <0>        0.00000
     16 C13         0.6411   -0.2854    0.0000 C.ar      1 <0>        0.00000
     17 C14         1.3556    0.1271    0.0000 C.ar      1 <0>        0.00000
     18 C15         2.0701   -0.2854    0.0000 C.ar      1 <0>        0.00000
     19 C16         2.0701   -1.1104    0.0000 C.ar      1 <0>        0.00000
     20 O2          2.7845   -1.5229    0.0000 O.3       1 <0>        0.00000
     21 C17         2.7845   -2.3479    0.0000 C.3       1 <0>        0.00000
     22 C18         2.0701   -2.7604    0.0000 C.ar      1 <0>        0.00000
     23 C19         2.0701   -3.5854    0.0000 C.ar      1 <0>        0.00000
     24 C20         1.3556   -3.9979    0.0000 C.ar      1 <0>        0.00000
     25 C21         0.6411   -3.5854    0.0000 C.ar      1 <0>        0.00000
     26 C22         0.6411   -2.7604    0.0000 C.ar      1 <0>        0.00000
     27 C23         1.3556   -2.3479    0.0000 C.ar      1 <0>        0.00000
     28 C24         1.3556   -1.5229    0.0000 C.ar      1 <0>        0.00000
     29 N3         -0.1435   -0.0305    0.0000 N.pl3     1 <0>        0.00000
     30 C25        -0.3984    0.7541    0.0000 C.3       1 <0>        0.00000
     31 C26         0.1536    1.3672    0.0000 C.ar      1 <0>        0.00000
     32 C27        -0.1014    2.1518    0.0000 C.ar      1 <0>        0.00000
     33 C28         0.4507    2.7649    0.0000 C.ar      1 <0>        0.00000
     34 C29         1.2577    2.5934    0.0000 C.ar      1 <0>        0.00000
     35 C30         1.5126    1.8088    0.0000 C.ar      1 <0>        0.00000
     36 C31         0.9606    1.1957    0.0000 C.ar      1 <0>        0.00000
     37 C32         2.3196    1.6373    0.0000 C.2       1 <0>        0.00000
     38 N4          2.5745    0.8526    0.0000 N.pl3     1 <0>        0.00000
     39 N5          2.8716    2.2503    0.0000 N.2       1 <0>        0.00000
     40 C33        -3.9284    0.7310    0.0000 C.ar      1 <0>        0.00000
     41 C34        -4.3409    1.4455    0.0000 C.ar      1 <0>        0.00000
     42 H1         -4.7534    3.5889    0.0000 H         1 <0>        0.00000
     43 H2         -4.7534    3.5889    0.0000 H         1 <0>        0.00000
     44 H3         -4.7534    3.5889    0.0000 H         1 <0>        0.00000
     45 H4         -5.0554    2.4619    0.0000 H         1 <0>        0.00000
     46 H5         -5.0554    2.4619    0.0000 H         1 <0>        0.00000
     47 H6         -5.0554    2.4619    0.0000 H         1 <0>        0.00000
     48 H7         -3.6265    3.2869    0.0000 H         1 <0>        0.00000
     49 H8         -3.6265    3.2869    0.0000 H         1 <0>        0.00000
     50 H9         -3.6265    3.2869    0.0000 H         1 <0>        0.00000
     51 H10        -3.1034    2.1599    0.0000 H         1 <0>        0.00000
     52 H11        -2.6909    1.4455    0.0000 H         1 <0>        0.00000
     53 H12        -2.6909    0.0165    0.0000 H         1 <0>        0.00000
     54 H13        -2.6909    0.0165    0.0000 H         1 <0>        0.00000
     55 H14        -1.8659    0.0165    0.0000 H         1 <0>        0.00000
     56 H15        -0.1435   -1.3654    0.0000 H         1 <0>        0.00000
     57 H16         1.3556    0.1271    0.0000 H         1 <0>        0.00000
     58 H17         2.0701   -0.2854    0.0000 H         1 <0>        0.00000
     59 H18         2.7845   -2.3479    0.0000 H         1 <0>        0.00000
     60 H19         2.7845   -2.3479    0.0000 H         1 <0>        0.00000
     61 H20         2.0701   -3.5854    0.0000 H         1 <0>        0.00000
     62 H21         1.3556   -3.9979    0.0000 H         1 <0>        0.00000
     63 H22         0.6411   -3.5854    0.0000 H         1 <0>        0.00000
     64 H23         0.6411   -2.7604    0.0000 H         1 <0>        0.00000
     65 H24         1.3556   -2.3479    0.0000 H         1 <0>        0.00000
     66 H25         1.3556   -1.5229    0.0000 H         1 <0>        0.00000
     67 H26        -0.3984    0.7541    0.0000 H         1 <0>        0.00000
     68 H27        -0.3984    0.7541    0.0000 H         1 <0>        0.00000
     69 H28        -0.1014    2.1518    0.0000 H         1 <0>        0.00000
     70 H29         0.4507    2.7649    0.0000 H         1 <0>        0.00000
     71 H30         1.2577    2.5934    0.0000 H         1 <0>        0.00000
     72 H31         0.9606    1.1957    0.0000 H         1 <0>        0.00000
     73 H32         2.5745    0.8526    0.0000 H         1 <0>        0.00000
     74 H33         2.5745    0.8526    0.0000 H         1 <0>        0.00000
     75 H34         2.8716    2.2503    0.0000 H         1 <0>        0.00000
     76 H35        -3.9284    0.7310    0.0000 H         1 <0>        0.00000
     77 H36        -4.3409    1.4455    0.0000 H         1 <0>        0.00000
@<TRIPOS>BOND
     1    1    2 1
     2    2    3 1
     3    2    4 1
     4    2    5 1
     5    5    6 ar
     6    6    7 ar
     7    7    8 ar
     8    8    9 1
     9    9   10 1
    10   10   11 am
    11   11   12 2
    12   11   13 1
    13   13   14 2
    14   14   15 1
    15   15   16 ar
    16   16   17 ar
    17   17   18 ar
    18   18   19 ar
    19   19   20 1
    20   20   21 1
    21   21   22 1
    22   22   23 ar
    23   23   24 ar
    24   24   25 ar
    25   25   26 ar
    26   26   27 ar
    27   22   27 ar
    28   19   28 ar
    29   15   28 ar
    30   16   29 1
    31   13   29 1
    32   29   30 1
    33   30   31 1
    34   31   32 ar
    35   32   33 ar
    36   33   34 ar
    37   34   35 ar
    38   35   36 ar
    39   31   36 ar
    40   35   37 1
    41   37   38 1
    42   37   39 2
    43    8   40 ar
    44   40   41 ar
    45    5   41 ar
    46    1   42 1
    47    1   43 1
    48    1   44 1
    49    3   45 1
    50    3   46 1
    51    3   47 1
    52    4   48 1
    53    4   49 1
    54    4   50 1
    55    6   51 1
    56    7   52 1
    57    9   53 1
    58    9   54 1
    59   10   55 1
    60   14   56 1
    61   17   57 1
    62   18   58 1
    63   21   59 1
    64   21   60 1
    65   23   61 1
    66   24   62 1
    67   25   63 1
    68   26   64 1
    69   27   65 1
    70   28   66 1
    71   30   67 1
    72   30   68 1
    73   32   69 1
    74   33   70 1
    75   34   71 1
    76   36   72 1
    77   38   73 1
    78   38   74 1
    79   39   75 1
    80   40   76 1
    81   41   77 1
@<TRIPOS>SUBSTRUCTURE
     1 <0>         1 GROUP 0 A     ****
@<TRIPOS>MOLECULE
MiniDrugBank_325
   48    49     1     0     0
SMALL
NO_CHARGES

@<TRIPOS>ATOM
      1 I1         -0.1469   -5.3785   -1.5884 I         1 <0>        0.00000
      2 I2          0.9619   -6.0704    3.5226 I         1 <0>        0.00000
      3 I3         -3.9355   -1.1928    0.7818 I         1 <0>        0.00000
      4 I4          5.5045   -6.2337   -0.5797 I         1 <0>        0.00000
      5 I5         -6.0068   -6.6590   -0.3483 I         1 <0>        0.00000
      6 I6          4.6032  -10.9595    2.9278 I         1 <0>        0.00000
      7 O1         -1.0233   -1.9758    1.8566 O.2       1 <0>        0.00000
      8 O2          4.9221   -3.9281    1.5665 O.2       1 <0>        0.00000
      9 O3         -2.5089   -7.9263   -0.3596 O.3       1 <0>        0.00000
     10 O4          1.1459   -9.7504    3.5813 O.3       1 <0>        0.00000
     11 O5         -3.0669   -7.4562   -2.5123 O.2       1 <0>        0.00000
     12 O6          2.4654   -8.9715    5.2602 O.2       1 <0>        0.00000
     13 N1         -1.2172   -2.5640   -0.4086 N.am      1 <0>        0.00000
     14 N2          2.9571   -5.1388    1.1533 N.am      1 <0>        0.00000
     15 C1          1.5446   -0.7595    1.2842 C.3       1 <0>        0.00000
     16 C2          2.2974   -2.0141    1.7522 C.3       1 <0>        0.00000
     17 C3          0.4510   -0.9712    0.2397 C.3       1 <0>        0.00000
     18 C4          3.0350   -2.7745    0.6479 C.3       1 <0>        0.00000
     19 C5         -0.6732   -1.8952    0.6840 C.2       1 <0>        0.00000
     20 C6          3.7580   -4.0046    1.1819 C.2       1 <0>        0.00000
     21 C7         -2.2743   -3.5033   -0.4063 C.ar      1 <0>        0.00000
     22 C8          3.3053   -6.4462    1.5716 C.ar      1 <0>        0.00000
     23 C9         -2.0655   -4.8017   -0.8710 C.ar      1 <0>        0.00000
     24 C10         2.5888   -7.0755    2.5895 C.ar      1 <0>        0.00000
     25 C11        -3.5316   -3.1247    0.0644 C.ar      1 <0>        0.00000
     26 C12         4.3717   -7.1047    0.9593 C.ar      1 <0>        0.00000
     27 C13        -3.1140   -5.7217   -0.8651 C.ar      1 <0>        0.00000
     28 C14         2.9388   -8.3633    2.9953 C.ar      1 <0>        0.00000
     29 C15        -4.5802   -4.0446    0.0702 C.ar      1 <0>        0.00000
     30 C16         4.7217   -8.3925    1.3651 C.ar      1 <0>        0.00000
     31 C17        -4.3714   -5.3431   -0.3945 C.ar      1 <0>        0.00000
     32 C18         4.0053   -9.0218    2.3830 C.ar      1 <0>        0.00000
     33 C19        -2.9071   -7.0866   -1.3497 C.2       1 <0>        0.00000
     34 C20         2.1947   -9.0339    4.0617 C.2       1 <0>        0.00000
     35 H1         -2.4286   -7.4778    0.5092 H         1 <0>        0.00000
     36 H2          1.0657   -9.6981    2.6050 H         1 <0>        0.00000
     37 H3         -0.8062   -2.3522   -1.3154 H         1 <0>        0.00000
     38 H4          2.0012   -5.0321    0.8218 H         1 <0>        0.00000
     39 H5          1.1159   -0.2682    2.1667 H         1 <0>        0.00000
     40 H6          2.2755   -0.0545    0.8679 H         1 <0>        0.00000
     41 H7          1.6094   -2.6745    2.2914 H         1 <0>        0.00000
     42 H8          3.0379   -1.6855    2.4929 H         1 <0>        0.00000
     43 H9          0.8909   -1.3386   -0.6934 H         1 <0>        0.00000
     44 H10        -0.0076   -0.0016    0.0083 H         1 <0>        0.00000
     45 H11         2.3578   -3.0177   -0.1772 H         1 <0>        0.00000
     46 H12         3.8189   -2.1294    0.2312 H         1 <0>        0.00000
     47 H13        -5.5608   -3.7492    0.4374 H         1 <0>        0.00000
     48 H14         5.5535   -8.9059    0.8873 H         1 <0>        0.00000
@<TRIPOS>BOND
     1    1   23 1
     2    2   24 1
     3    3   25 1
     4    4   26 1
     5    5   31 1
     6    6   32 1
     7    7   19 2
     8    8   20 2
     9    9   33 1
    10   10   34 1
    11   11   33 2
    12   12   34 2
    13   13   19 am
    14   13   21 1
    15   14   20 am
    16   14   22 1
    17   15   16 1
    18   15   17 1
    19   16   18 1
    20   17   19 1
    21   18   20 1
    22   21   23 ar
    23   21   25 ar
    24   22   24 ar
    25   22   26 ar
    26   23   27 ar
    27   24   28 ar
    28   25   29 ar
    29   26   30 ar
    30   27   31 ar
    31   27   33 1
    32   28   32 ar
    33   28   34 1
    34   29   31 ar
    35   30   32 ar
    36    9   35 1
    37   10   36 1
    38   13   37 1
    39   14   38 1
    40   15   39 1
    41   15   40 1
    42   16   41 1
    43   16   42 1
    44   17   43 1
    45   17   44 1
    46   18   45 1
    47   18   46 1
    48   29   47 1
    49   30   48 1
@<TRIPOS>SUBSTRUCTURE
     1 <0>         1 GROUP 0 A     ****
@<TRIPOS>MOLECULE
MiniDrugBank_326
   23    23     1     0     0
SMALL
NO_CHARGES

@<TRIPOS>ATOM
      1 C1          2.2794    1.3710   -0.1249 C.ar      1 <0>        0.00000
      2 C2          2.7590   -0.1957   -1.9004 C.ar      1 <0>        0.00000
      3 C3          3.3677    2.1498   -0.5181 C.ar      1 <0>        0.00000
      4 C4          3.8473    0.5832   -2.2937 C.ar      1 <0>        0.00000
      5 C5          0.7986   -0.6463   -0.3892 C.3       1 <0>        0.00000
      6 C6          1.9750    0.1982   -0.8161 C.ar      1 <0>        0.00000
      7 C7          4.1516    1.7559   -1.6025 C.ar      1 <0>        0.00000
      8 C8          1.1716   -1.7099    0.6517 C.3       1 <0>        0.00000
      9 C9          1.8517   -2.8881   -0.0301 C.2       1 <0>        0.00000
     10 I1          5.7741    2.9152   -2.1859 I         1 <0>        0.00000
     11 N1          0.0170   -2.1413    1.3992 N.3       1 <0>        0.00000
     12 O1          1.2347   -3.8561   -0.4623 O.2       1 <0>        0.00000
     13 O2          3.1986   -2.7862   -0.1323 O.3       1 <0>        0.00000
     14 H1          1.8803   -1.3158    1.3892 H         1 <0>        0.00000
     15 H2          1.6739    1.6853    0.7211 H         1 <0>        0.00000
     16 H3          2.5303   -1.1085   -2.4440 H         1 <0>        0.00000
     17 H4          3.5882    3.0588    0.0362 H         1 <0>        0.00000
     18 H5          4.4457    0.2572   -3.1408 H         1 <0>        0.00000
     19 H6          0.3761   -1.1193   -1.2858 H         1 <0>        0.00000
     20 H7          0.0000    0.0000   -0.0000 H         1 <0>        0.00000
     21 H8         -0.5796   -2.8510    1.0089 H         1 <0>        0.00000
     22 H9         -0.2859   -1.5947    2.1875 H         1 <0>        0.00000
     23 H10         3.5799   -1.9676    0.2494 H         1 <0>        0.00000
@<TRIPOS>BOND
     1    1    3 ar
     2    2    4 ar
     3    1    6 ar
     4    2    6 ar
     5    5    6 1
     6    3    7 ar
     7    4    7 ar
     8    5    8 1
     9    8    9 1
    10    7   10 1
    11    8   11 1
    12    9   12 2
    13    9   13 1
    14    8   14 1
    15    1   15 1
    16    2   16 1
    17    3   17 1
    18    4   18 1
    19    5   19 1
    20    5   20 1
    21   11   21 1
    22   11   22 1
    23   13   23 1
@<TRIPOS>SUBSTRUCTURE
     1 <0>         1 GROUP 0 A     ****
@<TRIPOS>MOLECULE
MiniDrugBank_327
   26    27     1     0     0
SMALL
NO_CHARGES

@<TRIPOS>ATOM
      1 C1         -1.9954    0.7885   -0.3414 C.3       1 <0>        0.00000
      2 S1         -3.6242    1.5775   -0.2081 S.3       1 <0>        0.00000
      3 C2         -3.7736    1.0200    1.4269 C.2       1 <0>        0.00000
      4 N1         -2.8141    0.3070    1.9115 N.2       1 <0>        0.00000
      5 C3         -1.7929    0.1027    1.0032 C.2       1 <0>        0.00000
      6 O1         -0.7917   -0.5680    1.2391 O.2       1 <0>        0.00000
      7 S2         -5.1895    1.4383    2.3328 S.3       1 <0>        0.00000
      8 C4         -1.9669   -0.2081   -1.4856 C.3       1 <0>        0.00000
      9 C5         -1.7271    0.4646   -2.8131 C.ar      1 <0>        0.00000
     10 C6         -2.8078    0.9104   -3.5740 C.ar      1 <0>        0.00000
     11 C7         -2.5863    1.5328   -4.8025 C.ar      1 <0>        0.00000
     12 C8         -1.2841    1.7095   -5.2701 C.ar      1 <0>        0.00000
     13 C9         -0.2033    1.2637   -4.5092 C.ar      1 <0>        0.00000
     14 C10        -0.4248    0.6414   -3.2807 C.ar      1 <0>        0.00000
     15 C11        -1.0469    2.3772   -6.5824 C.3       1 <0>        0.00000
     16 F1         -2.1942    2.7630   -7.2157 F         1 <0>        0.00000
     17 F2         -0.2926    3.5122   -6.4900 F         1 <0>        0.00000
     18 F3         -0.3916    1.5734   -7.4698 F         1 <0>        0.00000
     19 H1         -1.2301    1.5612   -0.4616 H         1 <0>        0.00000
     20 H2         -5.8043    2.1471    1.3773 H         1 <0>        0.00000
     21 H3         -2.9135   -0.7632   -1.5213 H         1 <0>        0.00000
     22 H4         -1.1854   -0.9586   -1.3082 H         1 <0>        0.00000
     23 H5         -3.8258    0.7773   -3.2177 H         1 <0>        0.00000
     24 H6         -3.4342    1.8779   -5.3884 H         1 <0>        0.00000
     25 H7          0.8146    1.3983   -4.8653 H         1 <0>        0.00000
     26 H8          0.4230    0.2973   -2.6944 H         1 <0>        0.00000
@<TRIPOS>BOND
     1    1    2 1
     2    1    5 1
     3    1    8 1
     4    1   19 1
     5    2    3 1
     6    3    4 2
     7    3    7 1
     8    4    5 1
     9    5    6 2
    10    8    9 1
    11    9   10 ar
    12    9   14 ar
    13   10   11 ar
    14   11   12 ar
    15   12   13 ar
    16   12   15 1
    17   13   14 ar
    18   15   16 1
    19   15   17 1
    20   15   18 1
    21    7   20 1
    22    8   21 1
    23    8   22 1
    24   10   23 1
    25   11   24 1
    26   13   25 1
    27   14   26 1
@<TRIPOS>SUBSTRUCTURE
     1 <0>         1 GROUP 0 A     ****
@<TRIPOS>MOLECULE
MiniDrugBank_328
   14    14     1     0     0
SMALL
NO_CHARGES

@<TRIPOS>ATOM
      1 I1          0.5432    0.1709    2.6770 I         1 <0>        0.00000
      2 C1          1.2526    0.2116    0.6586 C.3       1 <0>        0.00000
      3 C2          0.8375    1.4773   -0.0735 C.3       1 <0>        0.00000
      4 N1         -0.5663    1.4715   -0.4235 N.am      1 <0>        0.00000
      5 C3         -1.2131    0.3290   -0.8596 C.2       1 <0>        0.00000
      6 O1         -2.3558    0.3457   -1.3194 O.2       1 <0>        0.00000
      7 N2         -0.4803   -0.8519   -0.7182 N.am      1 <0>        0.00000
      8 C4          0.7136   -1.0302   -0.0232 C.2       1 <0>        0.00000
      9 O2          1.2686   -2.1239    0.0818 O.2       1 <0>        0.00000
     10 H1          2.3470    0.1504    0.6651 H         1 <0>        0.00000
     11 H2          1.0377    2.3822    0.5093 H         1 <0>        0.00000
     12 H3          1.3869    1.5573   -1.0190 H         1 <0>        0.00000
     13 H4         -1.0947    2.3353   -0.3465 H         1 <0>        0.00000
     14 H5         -0.8969   -1.6895   -1.1153 H         1 <0>        0.00000
@<TRIPOS>BOND
     1    1    2 1
     2    2    3 1
     3    3    4 1
     4    4    5 am
     5    5    6 2
     6    5    7 am
     7    7    8 am
     8    2    8 1
     9    8    9 2
    10    2   10 1
    11    3   11 1
    12    3   12 1
    13    4   13 1
    14    7   14 1
@<TRIPOS>SUBSTRUCTURE
     1 <0>         1 GROUP 0 A     ****
@<TRIPOS>MOLECULE
MiniDrugBank_329
   48    49     1     0     0
SMALL
NO_CHARGES

@<TRIPOS>ATOM
      1 C1          1.9483   -3.8677    1.3798 C.3       1 <0>        0.00000
      2 O1          1.2726   -2.6919    0.9474 O.3       1 <0>        0.00000
      3 C2          0.2388   -2.2146    1.8069 C.3       1 <0>        0.00000
      4 N1         -0.8165   -3.2165    1.9814 N.am      1 <0>        0.00000
      5 C3         -1.5748   -3.7420    0.9426 C.2       1 <0>        0.00000
      6 O2         -1.4574   -3.4358   -0.2425 O.2       1 <0>        0.00000
      7 C4         -2.6110   -4.7590    1.4253 C.3       1 <0>        0.00000
      8 C5         -2.8468   -5.8953    0.4409 C.2       1 <0>        0.00000
      9 O3         -1.7173   -6.6092    0.1899 O.3       1 <0>        0.00000
     10 O4         -3.9154   -6.1416   -0.1032 O.2       1 <0>        0.00000
     11 C6         -3.8925   -4.0306    1.7906 C.ar      1 <0>        0.00000
     12 C7         -4.5695   -3.2847    0.8257 C.ar      1 <0>        0.00000
     13 C8         -5.7475   -2.6170    1.1602 C.ar      1 <0>        0.00000
     14 C9         -6.2487   -2.6951    2.4597 C.ar      1 <0>        0.00000
     15 O5         -7.3987   -2.0443    2.7859 O.3       1 <0>        0.00000
     16 C10        -5.5717   -3.4410    3.4246 C.ar      1 <0>        0.00000
     17 C11        -4.3937   -4.1088    3.0900 C.ar      1 <0>        0.00000
     18 C12        -0.3233   -0.9390    1.1909 C.3       1 <0>        0.00000
     19 O6         -1.3608   -0.4746    2.0689 O.3       1 <0>        0.00000
     20 C13        -1.8816    0.7709    1.6055 C.3       1 <0>        0.00000
     21 C14        -0.7763    1.7776    1.5028 C.2       1 <0>        0.00000
     22 C15        -0.9503    3.0781    1.7703 C.2       1 <0>        0.00000
     23 C16         0.5434    1.2136    1.1016 C.2       1 <0>        0.00000
     24 N2          0.8101   -0.0355    0.9323 N.2       1 <0>        0.00000
     25 C17         1.6833    2.1365    0.8635 C.2       1 <0>        0.00000
     26 O7          2.3456    2.3100    2.0180 O.3       1 <0>        0.00000
     27 O8          1.9342    2.6255   -0.2094 O.2       1 <0>        0.00000
     28 C18         0.7576   -1.8460    3.2007 C.2       1 <0>        0.00000
     29 O9          2.0479   -1.4194    3.1802 O.3       1 <0>        0.00000
     30 O10         0.0853   -1.8683    4.2243 O.2       1 <0>        0.00000
     31 H1          2.7138   -4.1387    0.6486 H         1 <0>        0.00000
     32 H2          1.2289   -4.6831    1.4892 H         1 <0>        0.00000
     33 H3          2.4224   -3.6709    2.3443 H         1 <0>        0.00000
     34 H4         -1.0058   -3.5483    2.9229 H         1 <0>        0.00000
     35 H5         -2.2057   -5.2546    2.3191 H         1 <0>        0.00000
     36 H6         -0.9200   -6.3219    0.6838 H         1 <0>        0.00000
     37 H7         -4.1859   -3.2174   -0.1890 H         1 <0>        0.00000
     38 H8         -6.2704   -2.0372    0.4042 H         1 <0>        0.00000
     39 H9         -7.7493   -1.5732    2.0132 H         1 <0>        0.00000
     40 H10        -5.9571   -3.5055    4.4387 H         1 <0>        0.00000
     41 H11        -3.8722   -4.6867    3.8485 H         1 <0>        0.00000
     42 H12        -0.7827   -1.2060    0.2308 H         1 <0>        0.00000
     43 H13        -2.3625    0.6226    0.6315 H         1 <0>        0.00000
     44 H14        -2.6510    1.0892    2.3164 H         1 <0>        0.00000
     45 H15        -0.1251    3.7719    1.6836 H         1 <0>        0.00000
     46 H16        -1.9181    3.4514    2.0764 H         1 <0>        0.00000
     47 H17         3.1082    2.9155    1.8999 H         1 <0>        0.00000
     48 H18         2.4734   -1.4519    2.2967 H         1 <0>        0.00000
@<TRIPOS>BOND
     1    1    2 1
     2    2    3 1
     3    3    4 1
     4    4    5 am
     5    5    6 2
     6    5    7 1
     7    7    8 1
     8    8    9 1
     9    8   10 2
    10    7   11 1
    11   11   12 ar
    12   12   13 ar
    13   13   14 ar
    14   14   15 1
    15   14   16 ar
    16   16   17 ar
    17   11   17 ar
    18    3   18 1
    19   18   19 1
    20   19   20 1
    21   20   21 1
    22   21   22 2
    23   21   23 1
    24   23   24 2
    25   18   24 1
    26   23   25 1
    27   25   26 1
    28   25   27 2
    29    3   28 1
    30   28   29 1
    31   28   30 2
    32    1   31 1
    33    1   32 1
    34    1   33 1
    35    4   34 1
    36    7   35 1
    37    9   36 1
    38   12   37 1
    39   13   38 1
    40   15   39 1
    41   16   40 1
    42   17   41 1
    43   18   42 1
    44   20   43 1
    45   20   44 1
    46   22   45 1
    47   22   46 1
    48   26   47 1
    49   29   48 1
@<TRIPOS>SUBSTRUCTURE
     1 <0>         1 GROUP 0 A     ****
@<TRIPOS>MOLECULE
MiniDrugBank_330
   25    24     1     0     0
SMALL
NO_CHARGES

@<TRIPOS>ATOM
      1 C1         -0.9940   -3.4900   -1.9107 C.3       1 <0>        0.00000
      2 N1         -0.1433   -2.3292   -1.5636 N.3       1 <0>        0.00000
      3 N2         -0.7429   -1.4219   -0.5904 N.am      1 <0>        0.00000
      4 C2         -0.5232   -1.6345    0.7517 C.2       1 <0>        0.00000
      5 O1          0.1502   -2.5428    1.2281 O.2       1 <0>        0.00000
      6 O2         -1.1691   -0.6790    1.4834 O.3       1 <0>        0.00000
      7 C3         -1.0255   -0.7790    2.9046 C.3       1 <0>        0.00000
      8 C4          0.4582   -0.6711    3.2482 C.3       1 <0>        0.00000
      9 C5         -1.8089    0.3745    3.5246 C.3       1 <0>        0.00000
     10 C6         -1.5955   -2.1222    3.3539 C.3       1 <0>        0.00000
     11 C7          0.6732   -1.7116   -2.4381 C.1       1 <0>        0.00000
     12 N3          1.3755   -1.1818   -3.1948 N.1       1 <0>        0.00000
     13 H1         -1.6339   -3.2455   -2.7625 H         1 <0>        0.00000
     14 H2         -1.6271   -3.7619   -1.0616 H         1 <0>        0.00000
     15 H3         -0.3717   -4.3496   -2.1733 H         1 <0>        0.00000
     16 H4         -1.2941   -0.6495   -0.9491 H         1 <0>        0.00000
     17 H5          0.6151   -0.7430    4.3305 H         1 <0>        0.00000
     18 H6          1.0413   -1.4584    2.7593 H         1 <0>        0.00000
     19 H7          0.8624    0.3003    2.9411 H         1 <0>        0.00000
     20 H8         -1.7375    0.3530    4.6181 H         1 <0>        0.00000
     21 H9         -2.8752    0.2980    3.2833 H         1 <0>        0.00000
     22 H10        -1.4423    1.3441    3.1723 H         1 <0>        0.00000
     23 H11        -1.5065   -2.2427    4.4397 H         1 <0>        0.00000
     24 H12        -2.6510   -2.2213    3.0807 H         1 <0>        0.00000
     25 H13        -1.0398   -2.9529    2.9040 H         1 <0>        0.00000
@<TRIPOS>BOND
     1    1    2 1
     2    2    3 1
     3    2   11 1
     4    3    4 am
     5    4    5 2
     6    4    6 1
     7    6    7 1
     8    7    8 1
     9    7    9 1
    10    7   10 1
    11   11   12 3
    12    1   13 1
    13    1   14 1
    14    1   15 1
    15    3   16 1
    16    8   17 1
    17    8   18 1
    18    8   19 1
    19    9   20 1
    20    9   21 1
    21    9   22 1
    22   10   23 1
    23   10   24 1
    24   10   25 1
@<TRIPOS>SUBSTRUCTURE
     1 <0>         1 GROUP 0 A     ****
@<TRIPOS>MOLECULE
MiniDrugBank_331
   35    36     1     0     0
SMALL
NO_CHARGES

@<TRIPOS>ATOM
      1 S1          1.5472    0.8939    0.9201 S.3       1 <0>        0.00000
      2 C1          0.8554    2.3691    0.1096 C.3       1 <0>        0.00000
      3 C2         -0.1146    2.0181   -1.0063 C.3       1 <0>        0.00000
      4 C3          0.5818    1.1722   -2.0371 C.2       1 <0>        0.00000
      5 C4          0.5316    1.6225   -3.4539 C.2       1 <0>        0.00000
      6 O1         -0.7520    1.6808   -3.8414 O.3       1 <0>        0.00000
      7 O2          1.5106    1.8817   -4.1070 O.2       1 <0>        0.00000
      8 N1          1.2152    0.0788   -1.7887 N.2       1 <0>        0.00000
      9 C5          1.1976   -0.3490   -0.3816 C.3       1 <0>        0.00000
     10 C6          2.2221   -1.4741   -0.2408 C.3       1 <0>        0.00000
     11 C7          1.7509   -2.7395   -0.9118 C.2       1 <0>        0.00000
     12 O3          0.7207   -3.3312   -0.5995 O.2       1 <0>        0.00000
     13 N2          3.4752   -1.1093   -0.8360 N.am      1 <0>        0.00000
     14 C8          4.6698   -1.0685   -0.1207 C.2       1 <0>        0.00000
     15 O4          4.7782   -1.3351    1.0734 O.2       1 <0>        0.00000
     16 C9          5.8379   -0.6572   -0.9961 C.3       1 <0>        0.00000
     17 C10         6.0650    0.8310   -1.0277 C.ar      1 <0>        0.00000
     18 C11         6.8576    1.5949   -0.1997 C.ar      1 <0>        0.00000
     19 C12         6.8170    2.9766   -0.5451 C.ar      1 <0>        0.00000
     20 C13         5.9949    3.2161   -1.6244 C.ar      1 <0>        0.00000
     21 S2          5.2764    1.7788   -2.2161 S.3       1 <0>        0.00000
     22 H1          0.2104   -0.7743   -0.1625 H         1 <0>        0.00000
     23 H2          2.4173   -1.6909    0.8098 H         1 <0>        0.00000
     24 H3          0.3568    2.9797    0.8687 H         1 <0>        0.00000
     25 H4          1.6940    2.9526   -0.2858 H         1 <0>        0.00000
     26 H5         -0.9856    1.4717   -0.6267 H         1 <0>        0.00000
     27 H6         -0.4857    2.9393   -1.4674 H         1 <0>        0.00000
     28 H7         -0.8256    1.9754   -4.7741 H         1 <0>        0.00000
     29 H8          2.3329   -3.0758   -1.7878 H         1 <0>        0.00000
     30 H9          3.4970   -0.9058   -1.8357 H         1 <0>        0.00000
     31 H10         5.6623   -1.0240   -2.0155 H         1 <0>        0.00000
     32 H11         6.7422   -1.1625   -0.6339 H         1 <0>        0.00000
     33 H12         7.4414    1.1868    0.6157 H         1 <0>        0.00000
     34 H13         7.3633    3.7555   -0.0295 H         1 <0>        0.00000
     35 H14         5.7822    4.1662   -2.0937 H         1 <0>        0.00000
@<TRIPOS>BOND
     1    1    2 1
     2    1    9 1
     3    2    3 1
     4    3    4 1
     5    4    5 1
     6    4    8 2
     7    5    6 1
     8    5    7 2
     9    8    9 1
    10    9   10 1
    11    9   22 1
    12   10   11 1
    13   10   13 1
    14   10   23 1
    15   11   12 2
    16   13   14 am
    17   14   15 2
    18   14   16 1
    19   16   17 1
    20   17   18 2
    21   17   21 1
    22   18   19 1
    23   19   20 2
    24   20   21 1
    25    2   24 1
    26    2   25 1
    27    3   26 1
    28    3   27 1
    29    6   28 1
    30   11   29 1
    31   13   30 1
    32   16   31 1
    33   16   32 1
    34   18   33 1
    35   19   34 1
    36   20   35 1
@<TRIPOS>SUBSTRUCTURE
     1 <0>         1 GROUP 0 A     ****
@<TRIPOS>MOLECULE
MiniDrugBank_332
   22    22     1     0     0
SMALL
NO_CHARGES

@<TRIPOS>ATOM
      1 O1         -3.6262   -0.4520   -1.1988 O.3       1 <0>        0.00000
      2 C1         -2.8507    0.5652   -0.5829 C.3       1 <0>        0.00000
      3 C2         -1.5391   -0.0390   -0.0912 C.3       1 <0>        0.00000
      4 O2         -0.8580   -0.5733   -1.2295 O.3       1 <0>        0.00000
      5 C3          0.3421   -1.2441   -0.8694 C.3       1 <0>        0.00000
      6 F1          0.8994   -1.7071   -2.0216 F         1 <0>        0.00000
      7 C4          1.3243   -0.2971   -0.2098 C.3       1 <0>        0.00000
      8 F2          2.3909   -1.0228    0.2288 F         1 <0>        0.00000
      9 C5          0.6988    0.4117    0.9830 C.3       1 <0>        0.00000
     10 O3          1.5829    1.4576    1.3837 O.3       1 <0>        0.00000
     11 C6         -0.6633    1.0045    0.6136 C.3       1 <0>        0.00000
     12 O4         -1.3273    1.4444    1.7952 O.3       1 <0>        0.00000
     13 H1         -4.4526   -0.0377   -1.5007 H         1 <0>        0.00000
     14 H2         -2.6586    1.3545   -1.3158 H         1 <0>        0.00000
     15 H3         -3.4183    0.9833    0.2537 H         1 <0>        0.00000
     16 H4         -1.7872   -0.8555    0.5984 H         1 <0>        0.00000
     17 H5          0.1231   -2.1147   -0.2419 H         1 <0>        0.00000
     18 H6          1.7095    0.4276   -0.9359 H         1 <0>        0.00000
     19 H7          0.6155   -0.2758    1.8321 H         1 <0>        0.00000
     20 H8          2.4218    1.0328    1.6190 H         1 <0>        0.00000
     21 H9         -0.5156    1.8786   -0.0333 H         1 <0>        0.00000
     22 H10        -0.7562    2.1159    2.1996 H         1 <0>        0.00000
@<TRIPOS>BOND
     1    1    2 1
     2    2    3 1
     3    3    4 1
     4    4    5 1
     5    5    6 1
     6    5    7 1
     7    7    8 1
     8    7    9 1
     9    9   10 1
    10    9   11 1
    11    3   11 1
    12   11   12 1
    13    1   13 1
    14    2   14 1
    15    2   15 1
    16    3   16 1
    17    5   17 1
    18    7   18 1
    19    9   19 1
    20   10   20 1
    21   11   21 1
    22   12   22 1
@<TRIPOS>SUBSTRUCTURE
     1 <0>         1 GROUP 0 A     ****
@<TRIPOS>MOLECULE
MiniDrugBank_333
   72    74     1     0     0
SMALL
NO_CHARGES

@<TRIPOS>ATOM
      1 N1          4.4449    5.8498    0.0000 N.2       1 <0>        0.00000
      2 C1          5.2699    5.8498    0.0000 C.2       1 <0>        0.00000
      3 N2          5.6824    6.5643    0.0000 N.pl3     1 <0>        0.00000
      4 C2          5.6824    5.1354    0.0000 C.ar      1 <0>        0.00000
      5 C3          6.5074    5.1354    0.0000 C.ar      1 <0>        0.00000
      6 C4          6.9199    4.4209    0.0000 C.ar      1 <0>        0.00000
      7 C5          6.5074    3.7064    0.0000 C.ar      1 <0>        0.00000
      8 C6          6.9199    2.9920    0.0000 C.3       1 <0>        0.00000
      9 N3          6.5074    2.2775    0.0000 N.am      1 <0>        0.00000
     10 C7          6.9199    1.5630    0.0000 C.2       1 <0>        0.00000
     11 O1          7.7449    1.5630    0.0000 O.2       1 <0>        0.00000
     12 C8          6.5074    0.8485    0.0000 C.3       1 <0>        0.00000
     13 C9          5.6824    0.8485    0.0000 C.3       1 <0>        0.00000
     14 C10         5.2699    0.1341    0.0000 C.3       1 <0>        0.00000
     15 C11         4.4449    0.1341    0.0000 C.2       1 <0>        0.00000
     16 N4          4.0324   -0.5804    0.0000 N.am      1 <0>        0.00000
     17 O2          4.0324    0.8485    0.0000 O.2       1 <0>        0.00000
     18 N5          6.9199    0.1341    0.0000 N.am      1 <0>        0.00000
     19 C12         6.5074   -0.5804    0.0000 C.2       1 <0>        0.00000
     20 O3          5.6824   -0.5804    0.0000 O.2       1 <0>        0.00000
     21 C13         6.9199   -1.2949    0.0000 C.3       1 <0>        0.00000
     22 C14         6.5074   -2.0093    0.0000 C.3       1 <0>        0.00000
     23 C15         6.9199   -2.7238    0.0000 C.ar      1 <0>        0.00000
     24 C16         7.7404   -2.8100    0.0000 C.ar      1 <0>        0.00000
     25 N6          7.9119   -3.6170    0.0000 N.pl3     1 <0>        0.00000
     26 C17         7.1975   -4.0295    0.0000 C.ar      1 <0>        0.00000
     27 C18         7.0259   -4.8365    0.0000 C.ar      1 <0>        0.00000
     28 C19         6.2413   -5.0914    0.0000 C.ar      1 <0>        0.00000
     29 C20         5.6282   -4.5394    0.0000 C.ar      1 <0>        0.00000
     30 C21         5.7997   -3.7324    0.0000 C.ar      1 <0>        0.00000
     31 C22         6.5844   -3.4775    0.0000 C.ar      1 <0>        0.00000
     32 N7          7.7449   -1.2949    0.0000 N.pl3     1 <0>        0.00000
     33 S1          8.1574   -0.5804    0.0000 S.o2      1 <0>        0.00000
     34 O4          7.4430   -0.1679    0.0000 O.2       1 <0>        0.00000
     35 O5          8.8719   -0.9929    0.0000 O.2       1 <0>        0.00000
     36 C23         8.5699    0.1341    0.0000 C.3       1 <0>        0.00000
     37 C24         9.3949    0.1341    0.0000 C.3       1 <0>        0.00000
     38 C25         5.6824    3.7064    0.0000 C.ar      1 <0>        0.00000
     39 C26         5.2699    4.4209    0.0000 C.ar      1 <0>        0.00000
     40 H1          4.4449    5.8498    0.0000 H         1 <0>        0.00000
     41 H2          5.6824    6.5643    0.0000 H         1 <0>        0.00000
     42 H3          5.6824    6.5643    0.0000 H         1 <0>        0.00000
     43 H4          6.5074    5.1354    0.0000 H         1 <0>        0.00000
     44 H5          6.9199    4.4209    0.0000 H         1 <0>        0.00000
     45 H6          6.9199    2.9920    0.0000 H         1 <0>        0.00000
     46 H7          6.9199    2.9920    0.0000 H         1 <0>        0.00000
     47 H8          6.5074    2.2775    0.0000 H         1 <0>        0.00000
     48 H9          6.5074    0.8485    0.0000 H         1 <0>        0.00000
     49 H10         5.6824    0.8485    0.0000 H         1 <0>        0.00000
     50 H11         5.6824    0.8485    0.0000 H         1 <0>        0.00000
     51 H12         5.2699    0.1341    0.0000 H         1 <0>        0.00000
     52 H13         5.2699    0.1341    0.0000 H         1 <0>        0.00000
     53 H14         4.0324   -0.5804    0.0000 H         1 <0>        0.00000
     54 H15         4.0324   -0.5804    0.0000 H         1 <0>        0.00000
     55 H16         6.9199    0.1341    0.0000 H         1 <0>        0.00000
     56 H17         6.9199   -1.2949    0.0000 H         1 <0>        0.00000
     57 H18         6.5074   -2.0093    0.0000 H         1 <0>        0.00000
     58 H19         6.5074   -2.0093    0.0000 H         1 <0>        0.00000
     59 H20         7.7404   -2.8100    0.0000 H         1 <0>        0.00000
     60 H21         7.9119   -3.6170    0.0000 H         1 <0>        0.00000
     61 H22         7.0259   -4.8365    0.0000 H         1 <0>        0.00000
     62 H23         6.2413   -5.0914    0.0000 H         1 <0>        0.00000
     63 H24         5.6282   -4.5394    0.0000 H         1 <0>        0.00000
     64 H25         5.7997   -3.7324    0.0000 H         1 <0>        0.00000
     65 H26         7.7449   -1.2949    0.0000 H         1 <0>        0.00000
     66 H27         8.5699    0.1341    0.0000 H         1 <0>        0.00000
     67 H28         8.5699    0.1341    0.0000 H         1 <0>        0.00000
     68 H29         9.3949    0.1341    0.0000 H         1 <0>        0.00000
     69 H30         9.3949    0.1341    0.0000 H         1 <0>        0.00000
     70 H31         9.3949    0.1341    0.0000 H         1 <0>        0.00000
     71 H32         5.6824    3.7064    0.0000 H         1 <0>        0.00000
     72 H33         5.2699    4.4209    0.0000 H         1 <0>        0.00000
@<TRIPOS>BOND
     1    1    2 2
     2    2    3 1
     3    2    4 1
     4    4    5 ar
     5    5    6 ar
     6    6    7 ar
     7    7    8 1
     8    8    9 1
     9    9   10 am
    10   10   11 2
    11   10   12 1
    12   12   13 1
    13   13   14 1
    14   14   15 1
    15   15   16 am
    16   15   17 2
    17   12   18 1
    18   18   19 am
    19   19   20 2
    20   19   21 1
    21   21   22 1
    22   22   23 1
    23   23   24 2
    24   24   25 1
    25   25   26 1
    26   26   27 ar
    27   27   28 ar
    28   28   29 ar
    29   29   30 ar
    30   30   31 ar
    31   23   31 1
    32   26   31 ar
    33   21   32 1
    34   32   33 1
    35   33   34 2
    36   33   35 2
    37   33   36 1
    38   36   37 1
    39    7   38 ar
    40   38   39 ar
    41    4   39 ar
    42    1   40 1
    43    3   41 1
    44    3   42 1
    45    5   43 1
    46    6   44 1
    47    8   45 1
    48    8   46 1
    49    9   47 1
    50   12   48 1
    51   13   49 1
    52   13   50 1
    53   14   51 1
    54   14   52 1
    55   16   53 1
    56   16   54 1
    57   18   55 1
    58   21   56 1
    59   22   57 1
    60   22   58 1
    61   24   59 1
    62   25   60 1
    63   27   61 1
    64   28   62 1
    65   29   63 1
    66   30   64 1
    67   32   65 1
    68   36   66 1
    69   36   67 1
    70   37   68 1
    71   37   69 1
    72   37   70 1
    73   38   71 1
    74   39   72 1
@<TRIPOS>SUBSTRUCTURE
     1 <0>         1 GROUP 0 A     ****
@<TRIPOS>MOLECULE
MiniDrugBank_334
   33    34     1     0     0
SMALL
NO_CHARGES

@<TRIPOS>ATOM
      1 O1          2.3081   -1.6240    0.7043 O.3       1 <0>        0.00000
      2 C1          1.1992   -1.8227   -0.1467 C.3       1 <0>        0.00000
      3 C2         -0.0180   -1.0510    0.3050 C.3       1 <0>        0.00000
      4 C3         -1.1414   -1.8354   -0.3489 C.3       1 <0>        0.00000
      5 O2         -0.6925   -3.1954   -0.4675 O.3       1 <0>        0.00000
      6 C4          0.6885   -3.2521   -0.0738 C.3       1 <0>        0.00000
      7 C5          1.4423   -4.2080   -0.9805 C.3       1 <0>        0.00000
      8 O3          0.8878   -5.5034   -0.8344 O.3       1 <0>        0.00000
      9 P1          1.5193   -6.7164   -1.7015 P.3       1 <0>        0.00000
     10 O4          3.0626   -6.7682   -1.2214 O.3       1 <0>        0.00000
     11 O5          1.6132   -6.0875   -3.1883 O.3       1 <0>        0.00000
     12 O6          0.7745   -8.0160   -1.6089 O.2       1 <0>        0.00000
     13 N1         -2.3619   -1.7991    0.4025 N.am      1 <0>        0.00000
     14 C6         -2.3578   -2.3001    1.6993 C.ar      1 <0>        0.00000
     15 C7         -3.4280   -2.3241    2.5030 C.ar      1 <0>        0.00000
     16 I1         -3.3408   -3.0799    4.4045 I         1 <0>        0.00000
     17 C8         -4.7170   -1.7829    1.9916 C.ar      1 <0>        0.00000
     18 O7         -5.7428   -1.7688    2.6667 O.2       1 <0>        0.00000
     19 N2         -4.6615   -1.2966    0.6924 N.am      1 <0>        0.00000
     20 C9         -3.5464   -1.2683   -0.1521 C.ar      1 <0>        0.00000
     21 O8         -3.6231   -0.8065   -1.2926 O.2       1 <0>        0.00000
     22 H1          2.5092   -0.6726    0.6939 H         1 <0>        0.00000
     23 H2          1.5109   -1.5375   -1.1797 H         1 <0>        0.00000
     24 H3         -0.1215   -0.9768    1.3881 H         1 <0>        0.00000
     25 H4          0.0135   -0.0453   -0.1221 H         1 <0>        0.00000
     26 H5         -1.3696   -1.4481   -1.3556 H         1 <0>        0.00000
     27 H6          0.7163   -3.6326    0.9661 H         1 <0>        0.00000
     28 H7          2.4966   -4.2355   -0.7017 H         1 <0>        0.00000
     29 H8          1.3469   -3.8920   -2.0202 H         1 <0>        0.00000
     30 H9          3.2637   -7.0316   -0.2981 H         1 <0>        0.00000
     31 H10         0.7841   -5.8639   -3.6623 H         1 <0>        0.00000
     32 H11        -1.3960   -2.6835    2.0274 H         1 <0>        0.00000
     33 H12        -5.5258   -0.9199    0.3131 H         1 <0>        0.00000
@<TRIPOS>BOND
     1    1    2 1
     2    2    3 1
     3    3    4 1
     4    4    5 1
     5    5    6 1
     6    2    6 1
     7    6    7 1
     8    7    8 1
     9    8    9 1
    10    9   10 1
    11    9   11 1
    12    9   12 2
    13    4   13 1
    14   13   14 1
    15   14   15 2
    16   15   16 1
    17   15   17 1
    18   17   18 2
    19   17   19 am
    20   19   20 am
    21   13   20 am
    22   20   21 2
    23    1   22 1
    24    2   23 1
    25    3   24 1
    26    3   25 1
    27    4   26 1
    28    6   27 1
    29    7   28 1
    30    7   29 1
    31   10   30 1
    32   11   31 1
    33   14   32 1
    34   19   33 1
@<TRIPOS>SUBSTRUCTURE
     1 <0>         1 GROUP 0 A     ****
@<TRIPOS>MOLECULE
MiniDrugBank_335
   45    47     1     0     0
SMALL
NO_CHARGES

@<TRIPOS>ATOM
      1 C1          1.8568   -0.7294   -1.0861 C.3       1 <0>        0.00000
      2 C2          3.0409   -0.1425   -0.2772 C.3       1 <0>        0.00000
      3 N1          2.6908    1.2502    0.0731 N.3       1 <0>        0.00000
      4 C3          3.5091    1.7872    1.1573 C.3       1 <0>        0.00000
      5 C4          4.2983   -0.0019   -1.1451 C.3       1 <0>        0.00000
      6 C5          4.1881    1.3946   -1.7641 C.3       1 <0>        0.00000
      7 C6          2.8828    1.9668   -1.2001 C.3       1 <0>        0.00000
      8 C7          1.6676    1.6172   -2.0826 C.3       1 <0>        0.00000
      9 C8          1.5457    0.1071   -2.3423 C.3       1 <0>        0.00000
     10 O1          0.2615   -0.2118   -2.8642 O.3       1 <0>        0.00000
     11 P1          0.1054   -1.5469   -3.7725 P.3       1 <0>        0.00000
     12 O2          0.4829   -2.8067   -3.0400 O.2       1 <0>        0.00000
     13 O3         -1.4749   -1.5006   -4.1461 O.3       1 <0>        0.00000
     14 C9          0.8912   -1.2045   -5.3106 C.ar      1 <0>        0.00000
     15 C10         0.4399   -0.1506   -6.1049 C.ar      1 <0>        0.00000
     16 C11         1.9651   -1.9873   -5.7345 C.ar      1 <0>        0.00000
     17 C12         1.0624    0.1206   -7.3234 C.ar      1 <0>        0.00000
     18 C13         2.1363   -0.6622   -7.7474 C.ar      1 <0>        0.00000
     19 C14         2.5876   -1.7162   -6.9530 C.ar      1 <0>        0.00000
     20 C15         0.6561   -0.8614   -0.1877 C.2       1 <0>        0.00000
     21 O4         -0.4199   -0.3320   -0.4112 O.2       1 <0>        0.00000
     22 O5          0.9760   -1.6470    0.8769 O.3       1 <0>        0.00000
     23 C16        -0.0815   -1.8570    1.8181 C.3       1 <0>        0.00000
     24 H1          2.0999   -1.7534   -1.3987 H         1 <0>        0.00000
     25 H2          3.2213   -0.7619    0.6096 H         1 <0>        0.00000
     26 H3          2.9298    3.0543   -1.0739 H         1 <0>        0.00000
     27 H4          2.2680   -0.1687   -3.1206 H         1 <0>        0.00000
     28 H5          3.1991    2.8072    1.3606 H         1 <0>        0.00000
     29 H6          4.5519    1.7701    0.8564 H         1 <0>        0.00000
     30 H7          3.3707    1.1747    2.0427 H         1 <0>        0.00000
     31 H8          5.2025   -0.0571   -0.5272 H         1 <0>        0.00000
     32 H9          4.3760   -0.7818   -1.9097 H         1 <0>        0.00000
     33 H10         5.0449    2.0016   -1.4485 H         1 <0>        0.00000
     34 H11         4.1968    1.3580   -2.8583 H         1 <0>        0.00000
     35 H12         0.7463    1.9876   -1.6129 H         1 <0>        0.00000
     36 H13         1.7373    2.1419   -3.0438 H         1 <0>        0.00000
     37 H14        -2.1319   -1.5364   -3.4185 H         1 <0>        0.00000
     38 H15        -0.3960    0.4617   -5.7790 H         1 <0>        0.00000
     39 H16         2.3201   -2.8092   -5.1193 H         1 <0>        0.00000
     40 H17         0.7111    0.9412   -7.9420 H         1 <0>        0.00000
     41 H18         2.6210   -0.4511   -8.6961 H         1 <0>        0.00000
     42 H19         3.4237   -2.3257   -7.2831 H         1 <0>        0.00000
     43 H20         0.2852   -2.4940    2.6199 H         1 <0>        0.00000
     44 H21        -0.9190   -2.3247    1.3049 H         1 <0>        0.00000
     45 H22        -0.3797   -0.8897    2.2161 H         1 <0>        0.00000
@<TRIPOS>BOND
     1    1    2 1
     2    1    9 1
     3    1   20 1
     4    1   24 1
     5    2    3 1
     6    2    5 1
     7    2   25 1
     8    3    4 1
     9    3    7 1
    10    5    6 1
    11    6    7 1
    12    7    8 1
    13    7   26 1
    14    8    9 1
    15    9   10 1
    16    9   27 1
    17   10   11 1
    18   11   12 2
    19   11   13 1
    20   11   14 1
    21   14   15 ar
    22   14   16 ar
    23   15   17 ar
    24   16   19 ar
    25   17   18 ar
    26   18   19 ar
    27   20   21 2
    28   20   22 1
    29   22   23 1
    30    4   28 1
    31    4   29 1
    32    4   30 1
    33    5   31 1
    34    5   32 1
    35    6   33 1
    36    6   34 1
    37    8   35 1
    38    8   36 1
    39   13   37 1
    40   15   38 1
    41   16   39 1
    42   17   40 1
    43   18   41 1
    44   19   42 1
    45   23   43 1
    46   23   44 1
    47   23   45 1
@<TRIPOS>SUBSTRUCTURE
     1 <0>         1 GROUP 0 A     ****
@<TRIPOS>MOLECULE
MiniDrugBank_336
   25    26     1     0     0
SMALL
NO_CHARGES

@<TRIPOS>ATOM
      1 C1          0.8531    0.4034   -4.7409 C.ar      1 <0>        0.00000
      2 C2          2.1102    0.8372   -5.1467 C.ar      1 <0>        0.00000
      3 C3          3.1513   -0.0768   -5.1207 C.ar      1 <0>        0.00000
      4 Cl1         4.7357    0.3702   -5.6040 Cl        1 <0>        0.00000
      5 N1          3.0195   -1.3629   -4.7255 N.ar      1 <0>        0.00000
      6 C4          1.7829   -1.7482   -4.3383 C.ar      1 <0>        0.00000
      7 C5          0.6778   -0.9125   -4.3274 C.ar      1 <0>        0.00000
      8 C6         -0.6669   -1.4117   -3.8838 C.3       1 <0>        0.00000
      9 N2         -0.8689   -1.2329   -2.4618 N.pl3     1 <0>        0.00000
     10 C7         -0.4670   -2.3009   -1.5542 C.3       1 <0>        0.00000
     11 C8         -1.0977   -1.9859   -0.2016 C.3       1 <0>        0.00000
     12 S1         -1.1283   -0.1670   -0.1111 S.3       1 <0>        0.00000
     13 C9         -1.1320   -0.0163   -1.8712 C.2       1 <0>        0.00000
     14 N3         -1.3605    1.1346   -2.4056 N.2       1 <0>        0.00000
     15 C10        -1.5854    2.1434   -1.5524 C.1       1 <0>        0.00000
     16 N4         -1.7810    3.0227   -0.8206 N.1       1 <0>        0.00000
     17 H1          0.0161    1.0964   -4.7501 H         1 <0>        0.00000
     18 H2          2.2574    1.8620   -5.4712 H         1 <0>        0.00000
     19 H3          1.7067   -2.7855   -4.0266 H         1 <0>        0.00000
     20 H4         -1.4684   -0.8796   -4.4079 H         1 <0>        0.00000
     21 H5         -0.7837   -2.4773   -4.1072 H         1 <0>        0.00000
     22 H6         -0.7973   -3.2828   -1.9100 H         1 <0>        0.00000
     23 H7          0.6267   -2.3204   -1.4736 H         1 <0>        0.00000
     24 H8         -2.1301   -2.3481   -0.1635 H         1 <0>        0.00000
     25 H9         -0.5365   -2.4225    0.6286 H         1 <0>        0.00000
@<TRIPOS>BOND
     1    1    7 ar
     2    1    2 ar
     3    2    3 ar
     4    3    5 ar
     5    3    4 1
     6    5    6 ar
     7    6    7 ar
     8    7    8 1
     9    8    9 1
    10    9   13 1
    11    9   10 1
    12   10   11 1
    13   11   12 1
    14   12   13 1
    15   13   14 2
    16   14   15 1
    17   15   16 3
    18    1   17 1
    19    2   18 1
    20    6   19 1
    21    8   20 1
    22    8   21 1
    23   10   22 1
    24   10   23 1
    25   11   24 1
    26   11   25 1
@<TRIPOS>SUBSTRUCTURE
     1 <0>         1 GROUP 0 A     ****
@<TRIPOS>MOLECULE
MiniDrugBank_337
   65    65     1     0     0
SMALL
NO_CHARGES

@<TRIPOS>ATOM
      1 N1         -0.3615    0.4659    0.0000 N.2       1 <0>        0.00000
      2 C1         -0.0337    1.2230    0.0000 C.2       1 <0>        0.00000
      3 N2         -0.5254    1.8854    0.0000 N.pl3     1 <0>        0.00000
      4 C2          0.7859    1.3176    0.0000 C.ar      1 <0>        0.00000
      5 C3          1.1137    2.0747    0.0000 C.ar      1 <0>        0.00000
      6 C4          1.9332    2.1693    0.0000 C.ar      1 <0>        0.00000
      7 C5          2.4250    1.5069    0.0000 C.ar      1 <0>        0.00000
      8 C6          3.2445    1.6015    0.0000 C.3       1 <0>        0.00000
      9 N3          3.7363    0.9391    0.0000 N.am      1 <0>        0.00000
     10 C7          4.5558    1.0337    0.0000 C.2       1 <0>        0.00000
     11 O1          4.8836    1.7908    0.0000 O.2       1 <0>        0.00000
     12 C8          5.0476    0.3713    0.0000 C.3       1 <0>        0.00000
     13 C9          4.7197   -0.3858    0.0000 C.3       1 <0>        0.00000
     14 C10         3.9002   -0.4804    0.0000 C.3       1 <0>        0.00000
     15 S1          3.5724   -1.2375    0.0000 S.3       1 <0>        0.00000
     16 C11         2.7528   -1.3321    0.0000 C.3       1 <0>        0.00000
     17 N4          5.8671    0.4659    0.0000 N.am      1 <0>        0.00000
     18 C12         6.3588   -0.1965    0.0000 C.2       1 <0>        0.00000
     19 O2          6.0310   -0.9536    0.0000 O.2       1 <0>        0.00000
     20 C13         7.1784   -0.1019    0.0000 C.3       1 <0>        0.00000
     21 N5          7.6701   -0.7643    0.0000 N.pl3     1 <0>        0.00000
     22 S2          8.4897   -0.6697    0.0000 S.o2      1 <0>        0.00000
     23 O3          8.5843   -1.4893    0.0000 O.2       1 <0>        0.00000
     24 O4          8.3950    0.1499    0.0000 O.2       1 <0>        0.00000
     25 C14         9.3092   -0.5751    0.0000 C.3       1 <0>        0.00000
     26 C15         9.8010   -1.2375    0.0000 C.3       1 <0>        0.00000
     27 C16        10.6205   -1.1429    0.0000 C.3       1 <0>        0.00000
     28 C17         7.5062    0.6552    0.0000 C.3       1 <0>        0.00000
     29 C18         8.3258    0.7498    0.0000 C.3       1 <0>        0.00000
     30 O5          7.0145    1.3176    0.0000 O.3       1 <0>        0.00000
     31 C19         2.0972    0.7498    0.0000 C.ar      1 <0>        0.00000
     32 C20         1.2776    0.6552    0.0000 C.ar      1 <0>        0.00000
     33 H1         -0.3615    0.4659    0.0000 H         1 <0>        0.00000
     34 H2         -0.5254    1.8854    0.0000 H         1 <0>        0.00000
     35 H3         -0.5254    1.8854    0.0000 H         1 <0>        0.00000
     36 H4          1.1137    2.0747    0.0000 H         1 <0>        0.00000
     37 H5          1.9332    2.1693    0.0000 H         1 <0>        0.00000
     38 H6          3.2445    1.6015    0.0000 H         1 <0>        0.00000
     39 H7          3.2445    1.6015    0.0000 H         1 <0>        0.00000
     40 H8          3.7363    0.9391    0.0000 H         1 <0>        0.00000
     41 H9          5.0476    0.3713    0.0000 H         1 <0>        0.00000
     42 H10         4.7197   -0.3858    0.0000 H         1 <0>        0.00000
     43 H11         4.7197   -0.3858    0.0000 H         1 <0>        0.00000
     44 H12         3.9002   -0.4804    0.0000 H         1 <0>        0.00000
     45 H13         3.9002   -0.4804    0.0000 H         1 <0>        0.00000
     46 H14         2.7528   -1.3321    0.0000 H         1 <0>        0.00000
     47 H15         2.7528   -1.3321    0.0000 H         1 <0>        0.00000
     48 H16         2.7528   -1.3321    0.0000 H         1 <0>        0.00000
     49 H17         5.8671    0.4659    0.0000 H         1 <0>        0.00000
     50 H18         7.1784   -0.1019    0.0000 H         1 <0>        0.00000
     51 H19         7.6701   -0.7643    0.0000 H         1 <0>        0.00000
     52 H20         9.3092   -0.5751    0.0000 H         1 <0>        0.00000
     53 H21         9.3092   -0.5751    0.0000 H         1 <0>        0.00000
     54 H22         9.8010   -1.2375    0.0000 H         1 <0>        0.00000
     55 H23         9.8010   -1.2375    0.0000 H         1 <0>        0.00000
     56 H24        10.6205   -1.1429    0.0000 H         1 <0>        0.00000
     57 H25        10.6205   -1.1429    0.0000 H         1 <0>        0.00000
     58 H26        10.6205   -1.1429    0.0000 H         1 <0>        0.00000
     59 H27         7.5062    0.6552    0.0000 H         1 <0>        0.00000
     60 H28         8.3258    0.7498    0.0000 H         1 <0>        0.00000
     61 H29         8.3258    0.7498    0.0000 H         1 <0>        0.00000
     62 H30         8.3258    0.7498    0.0000 H         1 <0>        0.00000
     63 H31         7.0145    1.3176    0.0000 H         1 <0>        0.00000
     64 H32         2.0972    0.7498    0.0000 H         1 <0>        0.00000
     65 H33         1.2776    0.6552    0.0000 H         1 <0>        0.00000
@<TRIPOS>BOND
     1    1    2 2
     2    2    3 1
     3    2    4 1
     4    4    5 ar
     5    5    6 ar
     6    6    7 ar
     7    7    8 1
     8    8    9 1
     9    9   10 am
    10   10   11 2
    11   10   12 1
    12   12   13 1
    13   13   14 1
    14   14   15 1
    15   15   16 1
    16   12   17 1
    17   17   18 am
    18   18   19 2
    19   18   20 1
    20   20   21 1
    21   21   22 1
    22   22   23 2
    23   22   24 2
    24   22   25 1
    25   25   26 1
    26   26   27 1
    27   20   28 1
    28   28   29 1
    29   28   30 1
    30    7   31 ar
    31   31   32 ar
    32    4   32 ar
    33    1   33 1
    34    3   34 1
    35    3   35 1
    36    5   36 1
    37    6   37 1
    38    8   38 1
    39    8   39 1
    40    9   40 1
    41   12   41 1
    42   13   42 1
    43   13   43 1
    44   14   44 1
    45   14   45 1
    46   16   46 1
    47   16   47 1
    48   16   48 1
    49   17   49 1
    50   20   50 1
    51   21   51 1
    52   25   52 1
    53   25   53 1
    54   26   54 1
    55   26   55 1
    56   27   56 1
    57   27   57 1
    58   27   58 1
    59   28   59 1
    60   29   60 1
    61   29   61 1
    62   29   62 1
    63   30   63 1
    64   31   64 1
    65   32   65 1
@<TRIPOS>SUBSTRUCTURE
     1 <0>         1 GROUP 0 A     ****
@<TRIPOS>MOLECULE
MiniDrugBank_338
   37    38     1     0     0
SMALL
NO_CHARGES

@<TRIPOS>ATOM
      1 S1          0.3344    0.5542   -1.5329 S.3       1 <0>        0.00000
      2 C1         -0.1348    1.4346   -0.0303 C.3       1 <0>        0.00000
      3 C2          0.3956    0.6798    1.1466 C.2       1 <0>        0.00000
      4 C3          1.2888    1.2249    1.9883 C.2       1 <0>        0.00000
      5 C4         -0.1020   -0.7263    1.3269 C.3       1 <0>        0.00000
      6 C5         -1.4270   -0.6540    2.0198 C.2       1 <0>        0.00000
      7 O1         -1.9330   -1.8960    2.2136 O.3       1 <0>        0.00000
      8 O2         -1.9805    0.3778    2.3675 O.2       1 <0>        0.00000
      9 N1         -0.3177   -1.5093    0.1152 N.2       1 <0>        0.00000
     10 C6         -0.1549   -1.0642   -1.0764 C.2       1 <0>        0.00000
     11 C7         -0.3856   -1.9852   -2.2433 C.3       1 <0>        0.00000
     12 C8          0.5594   -3.1627   -2.1313 C.2       1 <0>        0.00000
     13 O3          0.3296   -4.2174   -1.5532 O.2       1 <0>        0.00000
     14 O4          1.7443   -2.9107   -2.7511 O.3       1 <0>        0.00000
     15 N2         -1.7425   -2.5068   -2.2565 N.am      1 <0>        0.00000
     16 C9         -2.7725   -1.8668   -2.9204 C.2       1 <0>        0.00000
     17 O5         -2.6668   -0.8201   -3.5544 O.2       1 <0>        0.00000
     18 C10        -4.0755   -2.6291   -2.7744 C.3       1 <0>        0.00000
     19 C11        -4.8799   -2.2110   -1.5721 C.ar      1 <0>        0.00000
     20 C12        -5.8406   -1.2278   -1.4832 C.ar      1 <0>        0.00000
     21 C13        -6.3839   -1.1275   -0.1698 C.ar      1 <0>        0.00000
     22 C14        -5.8179   -2.0383    0.6951 C.ar      1 <0>        0.00000
     23 S2         -4.6364   -3.0084   -0.0763 S.3       1 <0>        0.00000
     24 H1          0.5743   -1.2902    1.9800 H         1 <0>        0.00000
     25 H2         -0.1707   -1.4276   -3.1571 H         1 <0>        0.00000
     26 H3          0.2665    2.4518   -0.0849 H         1 <0>        0.00000
     27 H4         -1.2254    1.5176    0.0230 H         1 <0>        0.00000
     28 H5          1.6583    0.6612    2.8318 H         1 <0>        0.00000
     29 H6          1.6453    2.2315    1.8288 H         1 <0>        0.00000
     30 H7         -1.3375   -2.5923    1.8631 H         1 <0>        0.00000
     31 H8          1.8086   -2.0304   -3.1794 H         1 <0>        0.00000
     32 H9         -1.9079   -3.3878   -1.7881 H         1 <0>        0.00000
     33 H10        -3.8525   -3.7019   -2.7125 H         1 <0>        0.00000
     34 H11        -4.6695   -2.4856   -3.6858 H         1 <0>        0.00000
     35 H12        -6.1434   -0.6080   -2.3177 H         1 <0>        0.00000
     36 H13        -7.1514   -0.4243    0.1258 H         1 <0>        0.00000
     37 H14        -6.0418   -2.1803    1.7429 H         1 <0>        0.00000
@<TRIPOS>BOND
     1    1    2 1
     2    1   10 1
     3    2    3 1
     4    3    4 2
     5    3    5 1
     6    5    6 1
     7    5    9 1
     8    5   24 1
     9    6    7 1
    10    6    8 2
    11    9   10 2
    12   10   11 1
    13   11   12 1
    14   11   15 1
    15   11   25 1
    16   12   13 2
    17   12   14 1
    18   15   16 am
    19   16   17 2
    20   16   18 1
    21   18   19 1
    22   19   20 2
    23   19   23 1
    24   20   21 1
    25   21   22 2
    26   22   23 1
    27    2   26 1
    28    2   27 1
    29    4   28 1
    30    4   29 1
    31    7   30 1
    32   14   31 1
    33   15   32 1
    34   18   33 1
    35   18   34 1
    36   20   35 1
    37   21   36 1
    38   22   37 1
@<TRIPOS>SUBSTRUCTURE
     1 <0>         1 GROUP 0 A     ****
@<TRIPOS>MOLECULE
MiniDrugBank_339
   72    73     1     0     0
SMALL
NO_CHARGES

@<TRIPOS>ATOM
      1 C1          0.7664   -1.0549   -3.4913 C.3       1 <0>        0.00000
      2 C2          2.2343   -1.2234   -3.8859 C.3       1 <0>        0.00000
      3 C3          2.3586   -2.3114   -4.9561 C.3       1 <0>        0.00000
      4 C4          3.1310   -1.5732   -2.6811 C.3       1 <0>        0.00000
      5 C5          3.1347   -0.5281   -1.5656 C.3       1 <0>        0.00000
      6 N1          3.9923    0.5886   -1.8495 N.pl3     1 <0>        0.00000
      7 S1          3.6957    2.1224   -1.1159 S.o2      1 <0>        0.00000
      8 O1          4.5950    3.1040   -1.6901 O.2       1 <0>        0.00000
      9 O2          3.5928    1.9619    0.3219 O.2       1 <0>        0.00000
     10 C6          2.0604    2.4524   -1.7316 C.3       1 <0>        0.00000
     11 C7          1.8338    3.9229   -1.6114 C.ar      1 <0>        0.00000
     12 C8          2.1779    4.7701   -2.6647 C.ar      1 <0>        0.00000
     13 C9          1.9659    6.1442   -2.5523 C.ar      1 <0>        0.00000
     14 C10         1.4097    6.6710   -1.3866 C.ar      1 <0>        0.00000
     15 C11         1.0656    5.8237   -0.3333 C.ar      1 <0>        0.00000
     16 C12         1.2776    4.4497   -0.4457 C.ar      1 <0>        0.00000
     17 C13         3.7003   -1.1088   -0.2944 C.2       1 <0>        0.00000
     18 O3          4.9169   -1.0952   -0.0956 O.2       1 <0>        0.00000
     19 N2          2.7805   -1.6392    0.5957 N.am      1 <0>        0.00000
     20 C14         3.2064   -2.2307    1.8578 C.3       1 <0>        0.00000
     21 C15         1.9190   -2.5925    2.5807 C.3       1 <0>        0.00000
     22 C16         0.9409   -2.8570    1.4388 C.3       1 <0>        0.00000
     23 C17         1.3494   -1.8373    0.3795 C.3       1 <0>        0.00000
     24 C18         0.6592   -0.5268    0.6116 C.2       1 <0>        0.00000
     25 O4          1.3249    0.4562    0.9025 O.2       1 <0>        0.00000
     26 N3         -0.7109   -0.5859    0.4646 N.am      1 <0>        0.00000
     27 C19        -1.5702    0.5621    0.6450 C.3       1 <0>        0.00000
     28 C20        -1.7779    1.3321   -0.6517 C.3       1 <0>        0.00000
     29 C21        -2.4221    0.4768   -1.7493 C.3       1 <0>        0.00000
     30 C22        -2.6276    1.2533   -3.0457 C.3       1 <0>        0.00000
     31 N4         -1.3385    1.7300   -3.5493 N.2       1 <0>        0.00000
     32 C23        -1.3587    2.4107   -4.6528 C.2       1 <0>        0.00000
     33 N5         -0.1897    2.8943   -5.1915 N.pl3     1 <0>        0.00000
     34 N6         -2.4527    2.7457   -5.4194 N.pl3     1 <0>        0.00000
     35 H1          0.6570   -0.2795   -2.7253 H         1 <0>        0.00000
     36 H2          0.3567   -1.9798   -3.0744 H         1 <0>        0.00000
     37 H3          0.1542   -0.7670   -4.3526 H         1 <0>        0.00000
     38 H4          2.5809   -0.2818   -4.3292 H         1 <0>        0.00000
     39 H5          3.4016   -2.4543   -5.2588 H         1 <0>        0.00000
     40 H6          1.9798   -3.2691   -4.5834 H         1 <0>        0.00000
     41 H7          1.7790   -2.0490   -5.8475 H         1 <0>        0.00000
     42 H8          2.8180   -2.5397   -2.2634 H         1 <0>        0.00000
     43 H9          4.1590   -1.7207   -3.0408 H         1 <0>        0.00000
     44 H10         2.1334   -0.1458   -1.3509 H         1 <0>        0.00000
     45 H11         4.3640    0.6406   -2.8238 H         1 <0>        0.00000
     46 H12         2.0258    2.1052   -2.7628 H         1 <0>        0.00000
     47 H13         1.3640    1.8699   -1.1307 H         1 <0>        0.00000
     48 H14         2.6122    4.3691   -3.5767 H         1 <0>        0.00000
     49 H15         2.2334    6.8038   -3.3725 H         1 <0>        0.00000
     50 H16         1.2448    7.7410   -1.2993 H         1 <0>        0.00000
     51 H17         0.6327    6.2339    0.5744 H         1 <0>        0.00000
     52 H18         1.0061    3.7968    0.3796 H         1 <0>        0.00000
     53 H19         3.7985   -3.1252    1.6292 H         1 <0>        0.00000
     54 H20         3.8273   -1.5318    2.4280 H         1 <0>        0.00000
     55 H21         2.0380   -3.4515    3.2466 H         1 <0>        0.00000
     56 H22         1.5725   -1.7433    3.1811 H         1 <0>        0.00000
     57 H23         1.0984   -3.8721    1.0554 H         1 <0>        0.00000
     58 H24        -0.1018   -2.7663    1.7569 H         1 <0>        0.00000
     59 H25         1.1437   -2.1726   -0.6379 H         1 <0>        0.00000
     60 H26        -1.1347   -1.4755    0.2187 H         1 <0>        0.00000
     61 H27        -1.0878    1.1975    1.3908 H         1 <0>        0.00000
     62 H28        -2.5154    0.2019    1.0564 H         1 <0>        0.00000
     63 H29        -2.4263    2.1910   -0.4400 H         1 <0>        0.00000
     64 H30        -0.8184    1.7303   -1.0028 H         1 <0>        0.00000
     65 H31        -3.3974    0.1182   -1.3987 H         1 <0>        0.00000
     66 H32        -1.8039   -0.4071   -1.9465 H         1 <0>        0.00000
     67 H33        -3.0797    0.6004   -3.7995 H         1 <0>        0.00000
     68 H34        -3.2998    2.1036   -2.8912 H         1 <0>        0.00000
     69 H35         0.7028    2.7303   -4.7384 H         1 <0>        0.00000
     70 H36        -0.1842    3.4302   -6.0525 H         1 <0>        0.00000
     71 H37        -2.3485    3.2863   -6.2713 H         1 <0>        0.00000
     72 H38        -3.3945    2.4687   -5.1667 H         1 <0>        0.00000
@<TRIPOS>BOND
     1    1    2 1
     2    2    3 1
     3    2    4 1
     4    4    5 1
     5    5    6 1
     6    6    7 1
     7    7    8 2
     8    7    9 2
     9    7   10 1
    10   10   11 1
    11   11   12 ar
    12   12   13 ar
    13   13   14 ar
    14   14   15 ar
    15   15   16 ar
    16   11   16 ar
    17    5   17 1
    18   17   18 2
    19   17   19 am
    20   19   20 1
    21   20   21 1
    22   21   22 1
    23   22   23 1
    24   19   23 1
    25   23   24 1
    26   24   25 2
    27   24   26 am
    28   26   27 1
    29   27   28 1
    30   28   29 1
    31   29   30 1
    32   30   31 1
    33   31   32 2
    34   32   33 1
    35   32   34 1
    36    1   35 1
    37    1   36 1
    38    1   37 1
    39    2   38 1
    40    3   39 1
    41    3   40 1
    42    3   41 1
    43    4   42 1
    44    4   43 1
    45    5   44 1
    46    6   45 1
    47   10   46 1
    48   10   47 1
    49   12   48 1
    50   13   49 1
    51   14   50 1
    52   15   51 1
    53   16   52 1
    54   20   53 1
    55   20   54 1
    56   21   55 1
    57   21   56 1
    58   22   57 1
    59   22   58 1
    60   23   59 1
    61   26   60 1
    62   27   61 1
    63   27   62 1
    64   28   63 1
    65   28   64 1
    66   29   65 1
    67   29   66 1
    68   30   67 1
    69   30   68 1
    70   33   69 1
    71   33   70 1
    72   34   71 1
    73   34   72 1
@<TRIPOS>SUBSTRUCTURE
     1 <0>         1 GROUP 0 A     ****
@<TRIPOS>MOLECULE
MiniDrugBank_340
   79    82     1     0     0
SMALL
NO_CHARGES

@<TRIPOS>ATOM
      1 C1         -5.6683    5.4340   -2.1541 C.3       1 <0>        0.00000
      2 C2         -4.3204    4.9708   -2.5978 C.2       1 <0>        0.00000
      3 O1         -4.0859    4.8527   -3.7948 O.2       1 <0>        0.00000
      4 N1         -3.4447    4.7124   -1.5606 N.am      1 <0>        0.00000
      5 C3         -2.0937    4.2540   -1.7655 C.3       1 <0>        0.00000
      6 C4         -1.0935    5.4134   -1.8394 C.3       1 <0>        0.00000
      7 C5          0.1947    5.0300   -2.5258 C.ar      1 <0>        0.00000
      8 C6          0.3240    5.1887   -3.9055 C.ar      1 <0>        0.00000
      9 C7          1.5150    4.8354   -4.5397 C.ar      1 <0>        0.00000
     10 C8          2.5770    4.3234   -3.7940 C.ar      1 <0>        0.00000
     11 C9          2.4477    4.1647   -2.4143 C.ar      1 <0>        0.00000
     12 C10         1.2566    4.5180   -1.7801 C.ar      1 <0>        0.00000
     13 P1          3.7787    3.5183   -1.4474 P.3       1 <0>        0.00000
     14 O2          3.2230    3.4987    0.0751 O.3       1 <0>        0.00000
     15 O3          3.8258    1.9369   -1.7999 O.3       1 <0>        0.00000
     16 O4          5.1184    4.1831   -1.5703 O.2       1 <0>        0.00000
     17 P2          4.0766    3.8831   -4.6206 P.3       1 <0>        0.00000
     18 O5          3.8099    4.2186   -6.1837 O.3       1 <0>        0.00000
     19 O6          5.1366    5.0393   -4.2128 O.3       1 <0>        0.00000
     20 O7          4.6120    2.4982   -4.4045 O.2       1 <0>        0.00000
     21 C11        -1.7493    3.3291   -0.6035 C.2       1 <0>        0.00000
     22 O8         -2.1644    3.5076    0.5396 O.2       1 <0>        0.00000
     23 N2         -0.9661    2.2567   -1.0076 N.am      1 <0>        0.00000
     24 C12        -0.5394    1.2048   -0.1138 C.3       1 <0>        0.00000
     25 C13         0.8150    1.5524    0.5064 C.3       1 <0>        0.00000
     26 C14         1.0670    0.8575    1.8433 C.3       1 <0>        0.00000
     27 C15         1.1337   -0.6660    1.7670 C.3       1 <0>        0.00000
     28 C16        -0.1507   -1.3005    1.2451 C.3       1 <0>        0.00000
     29 N3         -0.2384   -1.2514   -0.2154 N.am      1 <0>        0.00000
     30 C17        -0.0652   -2.5174   -0.9166 C.3       1 <0>        0.00000
     31 C18         1.3705   -2.7588   -1.2517 C.ar      1 <0>        0.00000
     32 C19         2.1920   -3.4363   -0.3508 C.ar      1 <0>        0.00000
     33 C20         3.5328   -3.6614   -0.6630 C.ar      1 <0>        0.00000
     34 C21         4.0519   -3.2092   -1.8761 C.ar      1 <0>        0.00000
     35 C22         3.2303   -2.5318   -2.7771 C.ar      1 <0>        0.00000
     36 C23         1.8896   -2.3066   -2.4649 C.ar      1 <0>        0.00000
     37 C24         5.4423   -3.4431   -2.2005 C.ar      1 <0>        0.00000
     38 C25         6.1303   -2.5416   -3.0127 C.ar      1 <0>        0.00000
     39 C26         7.4708   -2.7673   -3.3254 C.ar      1 <0>        0.00000
     40 C27         8.1233   -3.8944   -2.8259 C.ar      1 <0>        0.00000
     41 C28         7.4353   -4.7958   -2.0136 C.ar      1 <0>        0.00000
     42 C29         6.0949   -4.5702   -1.7009 C.ar      1 <0>        0.00000
     43 C30        -0.4696   -0.0798   -0.9401 C.2       1 <0>        0.00000
     44 O9         -0.5865   -0.0562   -2.1683 O.2       1 <0>        0.00000
     45 H1         -6.3693    4.5985   -1.9968 H         1 <0>        0.00000
     46 H2         -5.6332    5.9696   -1.1919 H         1 <0>        0.00000
     47 H3         -6.1835    6.1178   -2.8475 H         1 <0>        0.00000
     48 H4         -3.7686    4.8522   -0.6082 H         1 <0>        0.00000
     49 H5         -2.0976    3.6704   -2.6936 H         1 <0>        0.00000
     50 H6         -0.8764    5.7933   -0.8319 H         1 <0>        0.00000
     51 H7         -1.5310    6.2635   -2.3795 H         1 <0>        0.00000
     52 H8         -0.4976    5.5871   -4.4948 H         1 <0>        0.00000
     53 H9          1.6108    4.9609   -5.6145 H         1 <0>        0.00000
     54 H10         1.1595    4.3932   -0.7047 H         1 <0>        0.00000
     55 H11         3.7547    3.0412    0.7608 H         1 <0>        0.00000
     56 H12         4.4052    1.3557   -1.2629 H         1 <0>        0.00000
     57 H13         4.5677    4.1807   -6.8053 H         1 <0>        0.00000
     58 H14         5.9997    5.0666   -4.6778 H         1 <0>        0.00000
     59 H15        -0.6785    2.2091   -1.9806 H         1 <0>        0.00000
     60 H16        -1.3277    1.1271    0.6385 H         1 <0>        0.00000
     61 H17         1.6291    1.3150   -0.1906 H         1 <0>        0.00000
     62 H18         0.8723    2.6338    0.6873 H         1 <0>        0.00000
     63 H19         2.0163    1.2241    2.2531 H         1 <0>        0.00000
     64 H20         0.2889    1.1527    2.5583 H         1 <0>        0.00000
     65 H21         1.9897   -0.9725    1.1535 H         1 <0>        0.00000
     66 H22         1.3187   -1.0410    2.7812 H         1 <0>        0.00000
     67 H23        -0.1855   -2.3519    1.5549 H         1 <0>        0.00000
     68 H24        -1.0341   -0.8156    1.6738 H         1 <0>        0.00000
     69 H25        -0.6827   -2.4704   -1.8128 H         1 <0>        0.00000
     70 H26        -0.4677   -3.2939   -0.2677 H         1 <0>        0.00000
     71 H27         1.7964   -3.7926    0.5967 H         1 <0>        0.00000
     72 H28         4.1600   -4.1906    0.0506 H         1 <0>        0.00000
     73 H29         3.6211   -2.1727   -3.7261 H         1 <0>        0.00000
     74 H30         1.2563   -1.7785   -3.1729 H         1 <0>        0.00000
     75 H31         5.6358   -1.6578   -3.4087 H         1 <0>        0.00000
     76 H32         8.0072   -2.0651   -3.9570 H         1 <0>        0.00000
     77 H33         9.1671   -4.0705   -3.0692 H         1 <0>        0.00000
     78 H34         7.9428   -5.6740   -1.6252 H         1 <0>        0.00000
     79 H35         5.5718   -5.2825   -1.0673 H         1 <0>        0.00000
@<TRIPOS>BOND
     1    1    2 1
     2    2    3 2
     3    2    4 am
     4    4    5 1
     5    5    6 1
     6    6    7 1
     7    7    8 ar
     8    8    9 ar
     9    9   10 ar
    10   10   11 ar
    11   11   12 ar
    12    7   12 ar
    13   11   13 1
    14   13   14 1
    15   13   15 1
    16   13   16 2
    17   10   17 1
    18   17   18 1
    19   17   19 1
    20   17   20 2
    21    5   21 1
    22   21   22 2
    23   21   23 am
    24   23   24 1
    25   24   25 1
    26   25   26 1
    27   26   27 1
    28   27   28 1
    29   28   29 1
    30   29   30 1
    31   30   31 1
    32   31   32 ar
    33   32   33 ar
    34   33   34 ar
    35   34   35 ar
    36   35   36 ar
    37   31   36 ar
    38   34   37 1
    39   37   38 ar
    40   38   39 ar
    41   39   40 ar
    42   40   41 ar
    43   41   42 ar
    44   37   42 ar
    45   29   43 am
    46   24   43 1
    47   43   44 2
    48    1   45 1
    49    1   46 1
    50    1   47 1
    51    4   48 1
    52    5   49 1
    53    6   50 1
    54    6   51 1
    55    8   52 1
    56    9   53 1
    57   12   54 1
    58   14   55 1
    59   15   56 1
    60   18   57 1
    61   19   58 1
    62   23   59 1
    63   24   60 1
    64   25   61 1
    65   25   62 1
    66   26   63 1
    67   26   64 1
    68   27   65 1
    69   27   66 1
    70   28   67 1
    71   28   68 1
    72   30   69 1
    73   30   70 1
    74   32   71 1
    75   33   72 1
    76   35   73 1
    77   36   74 1
    78   38   75 1
    79   39   76 1
    80   40   77 1
    81   41   78 1
    82   42   79 1
@<TRIPOS>SUBSTRUCTURE
     1 <0>         1 GROUP 0 A     ****
@<TRIPOS>MOLECULE
MiniDrugBank_341
   81    83     1     0     0
SMALL
NO_CHARGES

@<TRIPOS>ATOM
      1 C1          3.3922   -3.2821    3.3020 C.3       1 <0>        0.00000
      2 C2          2.0407   -3.6859    3.9017 C.3       1 <0>        0.00000
      3 C3          2.2678   -4.2941    5.2902 C.3       1 <0>        0.00000
      4 C4          1.0839   -2.4854    3.9679 C.3       1 <0>        0.00000
      5 N1          1.7417   -1.2677    4.3622 N.am      1 <0>        0.00000
      6 C5          1.7866   -0.8340    5.6811 C.2       1 <0>        0.00000
      7 O1          1.2820   -1.4285    6.6300 O.2       1 <0>        0.00000
      8 C6          2.4814    0.4572    5.9203 C.ar      1 <0>        0.00000
      9 C7          3.0736    0.7119    7.1572 C.ar      1 <0>        0.00000
     10 C8          3.7263    1.9241    7.3816 C.ar      1 <0>        0.00000
     11 C9          3.7867    2.8816    6.3690 C.ar      1 <0>        0.00000
     12 C10         3.1946    2.6268    5.1321 C.ar      1 <0>        0.00000
     13 C11         2.5420    1.4147    4.9077 C.ar      1 <0>        0.00000
     14 C12         4.4727    4.1589    6.6058 C.2       1 <0>        0.00000
     15 O2          3.7825    5.0733    7.0538 O.2       1 <0>        0.00000
     16 N2          5.8359    4.2373    6.3157 N.am      1 <0>        0.00000
     17 C13         6.6632    3.1489    5.7811 C.3       1 <0>        0.00000
     18 C14         7.5242    3.6575    4.6310 C.3       1 <0>        0.00000
     19 O3          8.2846    4.7972    5.0398 O.3       1 <0>        0.00000
     20 C15         7.4269    5.8747    5.4252 C.3       1 <0>        0.00000
     21 C16         6.5728    5.4638    6.6157 C.3       1 <0>        0.00000
     22 C17         0.4994   -2.1343    2.6229 C.2       1 <0>        0.00000
     23 O4          1.1098   -1.3894    1.8543 O.2       1 <0>        0.00000
     24 N3         -0.7288   -2.7097    2.3368 N.am      1 <0>        0.00000
     25 C18        -1.4859   -3.5965    3.2167 C.3       1 <0>        0.00000
     26 C19        -2.6961   -4.0190    2.3976 C.3       1 <0>        0.00000
     27 C20        -2.9188   -2.8323    1.4632 C.3       1 <0>        0.00000
     28 C21        -1.5050   -2.3523    1.1567 C.3       1 <0>        0.00000
     29 C22        -0.9067   -3.0875   -0.0047 C.2       1 <0>        0.00000
     30 O5         -0.3630   -4.1700    0.1808 O.2       1 <0>        0.00000
     31 N4         -1.0389   -2.4321   -1.2140 N.am      1 <0>        0.00000
     32 C23        -0.5345   -2.9602   -2.4551 C.3       1 <0>        0.00000
     33 C24         0.9052   -2.5169   -2.7776 C.3       1 <0>        0.00000
     34 C25         0.9948   -0.9913   -2.8844 C.3       1 <0>        0.00000
     35 C26         1.9417   -3.0263   -1.7708 C.3       1 <0>        0.00000
     36 C27        -1.5145   -2.5688   -3.5562 C.2       1 <0>        0.00000
     37 O6         -2.1874   -1.5381   -3.5015 O.2       1 <0>        0.00000
     38 C28        -1.6391   -3.5040   -4.7402 C.3       1 <0>        0.00000
     39 F1         -1.9655   -2.8321   -5.8760 F         1 <0>        0.00000
     40 F2         -0.4491   -4.1147   -4.9906 F         1 <0>        0.00000
     41 C29        -2.6780   -4.5682   -4.4884 C.3       1 <0>        0.00000
     42 F3         -3.8965   -4.0319   -4.2665 F         1 <0>        0.00000
     43 F4         -2.3561   -5.3247   -3.4172 F         1 <0>        0.00000
     44 F5         -2.7816   -5.3917   -5.5548 F         1 <0>        0.00000
     45 H1          3.2709   -2.8422    2.3070 H         1 <0>        0.00000
     46 H2          4.0459   -4.1546    3.1959 H         1 <0>        0.00000
     47 H3          3.9051   -2.5512    3.9366 H         1 <0>        0.00000
     48 H4          1.6070   -4.4647    3.2602 H         1 <0>        0.00000
     49 H5          1.3206   -4.5953    5.7507 H         1 <0>        0.00000
     50 H6          2.9160   -5.1747    5.2379 H         1 <0>        0.00000
     51 H7          2.7523   -3.5715    5.9559 H         1 <0>        0.00000
     52 H8          0.2570   -2.6609    4.6634 H         1 <0>        0.00000
     53 H9          2.1920   -0.7018    3.6462 H         1 <0>        0.00000
     54 H10         3.0325   -0.0270    7.9534 H         1 <0>        0.00000
     55 H11         4.1842    2.1120    8.3495 H         1 <0>        0.00000
     56 H12         3.2352    3.3660    4.3360 H         1 <0>        0.00000
     57 H13         2.0842    1.2268    3.9398 H         1 <0>        0.00000
     58 H14         7.3006    2.8124    6.6073 H         1 <0>        0.00000
     59 H15         6.0587    2.3007    5.4516 H         1 <0>        0.00000
     60 H16         8.2270    2.8799    4.3159 H         1 <0>        0.00000
     61 H17         6.9106    3.9264    3.7629 H         1 <0>        0.00000
     62 H18         8.0575    6.7284    5.6917 H         1 <0>        0.00000
     63 H19         6.8074    6.1680    4.5694 H         1 <0>        0.00000
     64 H20         7.2096    5.2402    7.4797 H         1 <0>        0.00000
     65 H21         5.8903    6.2716    6.8971 H         1 <0>        0.00000
     66 H22        -0.8742   -4.4453    3.5345 H         1 <0>        0.00000
     67 H23        -1.7849   -3.0206    4.0992 H         1 <0>        0.00000
     68 H24        -2.4602   -4.9163    1.8134 H         1 <0>        0.00000
     69 H25        -3.5679   -4.2402    3.0195 H         1 <0>        0.00000
     70 H26        -3.4926   -3.1083    0.5733 H         1 <0>        0.00000
     71 H27        -3.4684   -2.0486    1.9988 H         1 <0>        0.00000
     72 H28        -1.4477   -1.2784    0.9581 H         1 <0>        0.00000
     73 H29        -1.5147   -1.5350   -1.2281 H         1 <0>        0.00000
     74 H30        -0.5775   -4.0503   -2.3511 H         1 <0>        0.00000
     75 H31         1.1781   -2.9278   -3.7584 H         1 <0>        0.00000
     76 H32         2.0192   -0.6791   -3.1138 H         1 <0>        0.00000
     77 H33         0.3475   -0.6187   -3.6853 H         1 <0>        0.00000
     78 H34         0.6969   -0.5034   -1.9504 H         1 <0>        0.00000
     79 H35         2.9496   -2.6914   -2.0334 H         1 <0>        0.00000
     80 H36         1.7223   -2.6425   -0.7683 H         1 <0>        0.00000
     81 H37         1.9474   -4.1196   -1.7120 H         1 <0>        0.00000
@<TRIPOS>BOND
     1    1    2 1
     2    2    3 1
     3    2    4 1
     4    4    5 1
     5    5    6 am
     6    6    7 2
     7    6    8 1
     8    8    9 ar
     9    9   10 ar
    10   10   11 ar
    11   11   12 ar
    12   12   13 ar
    13    8   13 ar
    14   11   14 1
    15   14   15 2
    16   14   16 am
    17   16   17 1
    18   17   18 1
    19   18   19 1
    20   19   20 1
    21   20   21 1
    22   16   21 1
    23    4   22 1
    24   22   23 2
    25   22   24 am
    26   24   25 1
    27   25   26 1
    28   26   27 1
    29   27   28 1
    30   24   28 1
    31   28   29 1
    32   29   30 2
    33   29   31 am
    34   31   32 1
    35   32   33 1
    36   33   34 1
    37   33   35 1
    38   32   36 1
    39   36   37 2
    40   36   38 1
    41   38   39 1
    42   38   40 1
    43   38   41 1
    44   41   42 1
    45   41   43 1
    46   41   44 1
    47    1   45 1
    48    1   46 1
    49    1   47 1
    50    2   48 1
    51    3   49 1
    52    3   50 1
    53    3   51 1
    54    4   52 1
    55    5   53 1
    56    9   54 1
    57   10   55 1
    58   12   56 1
    59   13   57 1
    60   17   58 1
    61   17   59 1
    62   18   60 1
    63   18   61 1
    64   20   62 1
    65   20   63 1
    66   21   64 1
    67   21   65 1
    68   25   66 1
    69   25   67 1
    70   26   68 1
    71   26   69 1
    72   27   70 1
    73   27   71 1
    74   28   72 1
    75   31   73 1
    76   32   74 1
    77   33   75 1
    78   34   76 1
    79   34   77 1
    80   34   78 1
    81   35   79 1
    82   35   80 1
    83   35   81 1
@<TRIPOS>SUBSTRUCTURE
     1 <0>         1 GROUP 0 A     ****
@<TRIPOS>MOLECULE
MiniDrugBank_342
    5     4     1     0     0
SMALL
NO_CHARGES

@<TRIPOS>ATOM
      1 O1          1.1270    0.9225    0.5418 O.3       1 <0>        0.00000
      2 P1          0.0603   -0.0661    0.0934 P.3       1 <0>        0.00000
      3 O2          0.5646   -1.2885   -0.6600 O.3       1 <0>        0.00000
      4 F1         -0.6827    0.7485   -1.0575 F         1 <0>        0.00000
      5 O3         -1.0691   -0.3164    1.0823 O.2       1 <0>        0.00000
@<TRIPOS>BOND
     1    1    2 1
     2    2    3 1
     3    2    4 1
     4    2    5 2
@<TRIPOS>SUBSTRUCTURE
     1 <0>         1 GROUP 0 A     ****
@<TRIPOS>MOLECULE
MiniDrugBank_343
   56    58     1     0     0
SMALL
NO_CHARGES

@<TRIPOS>ATOM
      1 C1         -0.6726   -2.9691   -0.4220 C.3       1 <0>        0.00000
      2 C2         -1.8590   -0.8750   -0.3402 C.2       1 <0>        0.00000
      3 C3         -0.9856   -0.3966    0.8001 C.2       1 <0>        0.00000
      4 C4         -1.1488    1.0027    1.3283 C.3       1 <0>        0.00000
      5 C5         -0.0009    1.4428    2.2537 C.3       1 <0>        0.00000
      6 C6          0.3565    0.3162    3.2260 C.3       1 <0>        0.00000
      7 C7          0.7888   -0.9407    2.4673 C.3       1 <0>        0.00000
      8 C8         -0.0981   -1.2781    1.2942 C.2       1 <0>        0.00000
      9 C9         -0.3685    2.7216    3.0028 C.3       1 <0>        0.00000
     10 C10         1.8312    3.7979    2.5988 C.ar      1 <0>        0.00000
     11 C11         3.1216    4.0145    3.0820 C.ar      1 <0>        0.00000
     12 C12         4.1269    4.4464    2.2168 C.ar      1 <0>        0.00000
     13 C13         5.5901    4.4110    4.0913 C.3       1 <0>        0.00000
     14 C14         3.8419    4.6615    0.8684 C.ar      1 <0>        0.00000
     15 C15         5.5895    4.0758   -0.6345 C.3       1 <0>        0.00000
     16 C16         2.5514    4.4447    0.3852 C.ar      1 <0>        0.00000
     17 C17         0.9164    4.4062   -1.3413 C.3       1 <0>        0.00000
     18 C18         1.5461    4.0129    1.2504 C.ar      1 <0>        0.00000
     19 N1          0.0441   -2.5344    0.7664 N.pl3     1 <0>        0.00000
     20 N2         -1.1993   -4.3458   -0.4465 N.3       1 <0>        0.00000
     21 N3         -1.7240   -2.0437   -0.8997 N.2       1 <0>        0.00000
     22 N4         -2.8549   -0.0485   -0.8174 N.pl3     1 <0>        0.00000
     23 N5          0.8135    3.3607    3.4748 N.pl3     1 <0>        0.00000
     24 O1          5.3832    4.6542    2.7013 O.3       1 <0>        0.00000
     25 O2          4.8245    5.0836    0.0227 O.3       1 <0>        0.00000
     26 O3          2.2597    4.6511   -0.9294 O.3       1 <0>        0.00000
     27 C19         0.9926    3.5633    4.9230 C.3       1 <0>        0.00000
     28 H1          0.0836   -2.9559   -1.2173 H         1 <0>        0.00000
     29 H2          0.8816    1.6585    1.6353 H         1 <0>        0.00000
     30 H3         -1.2003    1.7138    0.4948 H         1 <0>        0.00000
     31 H4         -2.1050    1.0590    1.8643 H         1 <0>        0.00000
     32 H5          1.1647    0.6290    3.8977 H         1 <0>        0.00000
     33 H6         -0.5093    0.0817    3.8594 H         1 <0>        0.00000
     34 H7          1.8137   -0.8057    2.0985 H         1 <0>        0.00000
     35 H8          0.8118   -1.7794    3.1742 H         1 <0>        0.00000
     36 H9         -0.9969    2.4625    3.8446 H         1 <0>        0.00000
     37 H10        -0.8905    3.3868    2.3282 H         1 <0>        0.00000
     38 H11         3.3484    3.8483    4.1326 H         1 <0>        0.00000
     39 H12         6.6330    4.6147    4.3463 H         1 <0>        0.00000
     40 H13         5.3442    3.3711    4.3207 H         1 <0>        0.00000
     41 H14         4.9403    5.0729    4.6686 H         1 <0>        0.00000
     42 H15         6.3369    4.5463   -1.2779 H         1 <0>        0.00000
     43 H16         4.9260    3.4440   -1.2303 H         1 <0>        0.00000
     44 H17         6.0929    3.4643    0.1181 H         1 <0>        0.00000
     45 H18         0.8198    4.6088   -2.4108 H         1 <0>        0.00000
     46 H19         0.2378    5.0490   -0.7750 H         1 <0>        0.00000
     47 H20         0.6704    3.3595   -1.1475 H         1 <0>        0.00000
     48 H21         0.5413    3.8450    0.8697 H         1 <0>        0.00000
     49 H22         0.7403   -3.1495    1.1730 H         1 <0>        0.00000
     50 H23        -2.0740   -4.5063   -0.0104 H         1 <0>        0.00000
     51 H24        -0.5740   -5.0676   -0.7096 H         1 <0>        0.00000
     52 H25        -3.4138   -0.3814   -1.5631 H         1 <0>        0.00000
     53 H26        -2.9635    0.8381   -0.3915 H         1 <0>        0.00000
     54 H27         1.9403    4.0589    5.0820 H         1 <0>        0.00000
     55 H28         0.9839    2.5963    5.4071 H         1 <0>        0.00000
     56 H29         0.1784    4.1754    5.2859 H         1 <0>        0.00000
@<TRIPOS>BOND
     1    1   19 1
     2    1   20 1
     3    1   21 1
     4    1   28 1
     5    2    3 1
     6    2   21 2
     7    2   22 1
     8    3    4 1
     9    3    8 2
    10    4    5 1
    11    5    6 1
    12    5    9 1
    13    5   29 1
    14    6    7 1
    15    7    8 1
    16    8   19 1
    17    9   23 1
    18   10   11 ar
    19   10   18 ar
    20   10   23 1
    21   11   12 ar
    22   12   14 ar
    23   12   24 1
    24   13   24 1
    25   14   16 ar
    26   14   25 1
    27   15   25 1
    28   16   18 ar
    29   16   26 1
    30   17   26 1
    31   23   27 1
    32    4   30 1
    33    4   31 1
    34    6   32 1
    35    6   33 1
    36    7   34 1
    37    7   35 1
    38    9   36 1
    39    9   37 1
    40   11   38 1
    41   13   39 1
    42   13   40 1
    43   13   41 1
    44   15   42 1
    45   15   43 1
    46   15   44 1
    47   17   45 1
    48   17   46 1
    49   17   47 1
    50   18   48 1
    51   19   49 1
    52   20   50 1
    53   20   51 1
    54   22   52 1
    55   22   53 1
    56   27   54 1
    57   27   55 1
    58   27   56 1
@<TRIPOS>SUBSTRUCTURE
     1 <0>         1 GROUP 0 A     ****
@<TRIPOS>MOLECULE
MiniDrugBank_344
   64    64     1     0     0
SMALL
NO_CHARGES

@<TRIPOS>ATOM
      1 O1          3.2517   -0.9689   -1.1030 O.2       1 <0>        0.00000
      2 C1          2.2574   -0.5721   -1.7014 C.2       1 <0>        0.00000
      3 C2          1.5585    0.7520   -1.4462 C.3       1 <0>        0.00000
      4 C3          1.5275    1.6610   -2.6818 C.3       1 <0>        0.00000
      5 C4          2.9217    2.0141   -3.1854 C.3       1 <0>        0.00000
      6 C5          0.1391    0.4451   -0.9643 C.3       1 <0>        0.00000
      7 N1          0.1554   -0.3476    0.2762 N.am      1 <0>        0.00000
      8 C6         -0.1509    0.4797    1.4372 C.3       1 <0>        0.00000
      9 C7         -0.2347    1.9065    0.9129 C.3       1 <0>        0.00000
     10 C8         -0.5930    1.7330   -0.5607 C.3       1 <0>        0.00000
     11 N2         -2.0605    1.5455   -0.7016 N.pl3     1 <0>        0.00000
     12 S1         -2.9339    2.6217   -1.6878 S.o2      1 <0>        0.00000
     13 O2         -4.3551    2.3591   -1.5739 O.2       1 <0>        0.00000
     14 O3         -2.2896    2.6675   -2.9863 O.2       1 <0>        0.00000
     15 C9         -2.5957    4.1654   -0.8726 C.3       1 <0>        0.00000
     16 C10         0.3313   -1.7153    0.4108 C.2       1 <0>        0.00000
     17 O4          0.5051   -2.4774   -0.5433 O.2       1 <0>        0.00000
     18 C11         0.3099   -2.2642    1.8143 C.3       1 <0>        0.00000
     19 C12         1.7200   -2.3767    2.4029 C.3       1 <0>        0.00000
     20 C13         1.6798   -2.4508    3.9334 C.3       1 <0>        0.00000
     21 C14         2.4424   -3.6137    1.8579 C.3       1 <0>        0.00000
     22 N3         -0.3314   -3.5363    1.6309 N.am      1 <0>        0.00000
     23 C15        -1.1973   -4.1057    2.5477 C.2       1 <0>        0.00000
     24 O5         -1.5263   -3.6083    3.6196 O.2       1 <0>        0.00000
     25 O6         -1.6388   -5.3133    2.0849 O.3       1 <0>        0.00000
     26 C16        -2.5475   -6.0155    2.9405 C.3       1 <0>        0.00000
     27 C17        -3.7836   -5.1442    3.1500 C.3       1 <0>        0.00000
     28 C18        -2.9181   -7.3195    2.2401 C.3       1 <0>        0.00000
     29 C19        -1.8435   -6.2954    4.2660 C.3       1 <0>        0.00000
     30 H1          2.1050    1.2517   -0.6374 H         1 <0>        0.00000
     31 H2         -0.3882   -0.1117   -1.7392 H         1 <0>        0.00000
     32 H3         -0.3057    2.6029   -1.1660 H         1 <0>        0.00000
     33 H4         -0.3444   -1.6365    2.4207 H         1 <0>        0.00000
     34 H5          1.8030   -1.1942   -2.4928 H         1 <0>        0.00000
     35 H6          0.9604    1.1893   -3.4935 H         1 <0>        0.00000
     36 H7          1.0113    2.5970   -2.4351 H         1 <0>        0.00000
     37 H8          2.8828    2.6620   -4.0657 H         1 <0>        0.00000
     38 H9          3.4823    1.1113   -3.4482 H         1 <0>        0.00000
     39 H10         3.4797    2.5421   -2.4056 H         1 <0>        0.00000
     40 H11        -1.1137    0.1463    1.8463 H         1 <0>        0.00000
     41 H12         0.6162    0.3637    2.2117 H         1 <0>        0.00000
     42 H13        -0.9523    2.5105    1.4783 H         1 <0>        0.00000
     43 H14         0.7490    2.3854    0.9982 H         1 <0>        0.00000
     44 H15        -2.5102    1.2131    0.1552 H         1 <0>        0.00000
     45 H16        -3.1123    4.9438   -1.4245 H         1 <0>        0.00000
     46 H17        -2.9690    4.0847    0.1429 H         1 <0>        0.00000
     47 H18        -1.5210    4.3130   -0.8901 H         1 <0>        0.00000
     48 H19         2.3093   -1.4928    2.1240 H         1 <0>        0.00000
     49 H20         2.6870   -2.5312    4.3547 H         1 <0>        0.00000
     50 H21         1.1161   -3.3296    4.2646 H         1 <0>        0.00000
     51 H22         1.2023   -1.5625    4.3610 H         1 <0>        0.00000
     52 H23         3.4516   -3.6994    2.2755 H         1 <0>        0.00000
     53 H24         1.8960   -4.5316    2.0975 H         1 <0>        0.00000
     54 H25         2.5313   -3.5622    0.7674 H         1 <0>        0.00000
     55 H26        -0.1440   -4.0570    0.7750 H         1 <0>        0.00000
     56 H27        -4.5088   -5.6447    3.8016 H         1 <0>        0.00000
     57 H28        -3.5228   -4.1792    3.5967 H         1 <0>        0.00000
     58 H29        -4.2980   -4.9583    2.2003 H         1 <0>        0.00000
     59 H30        -3.6160   -7.9061    2.8485 H         1 <0>        0.00000
     60 H31        -2.0335   -7.9494    2.0915 H         1 <0>        0.00000
     61 H32        -3.3796   -7.1344    1.2647 H         1 <0>        0.00000
     62 H33        -2.5043   -6.8338    4.9551 H         1 <0>        0.00000
     63 H34        -0.9367   -6.8914    4.1203 H         1 <0>        0.00000
     64 H35        -1.5689   -5.3606    4.7679 H         1 <0>        0.00000
@<TRIPOS>BOND
     1    1    2 2
     2    2    3 1
     3    3    4 1
     4    3    6 1
     5    3   30 1
     6    4    5 1
     7    6    7 1
     8    6   10 1
     9    6   31 1
    10    7    8 1
    11    7   16 am
    12    8    9 1
    13    9   10 1
    14   10   11 1
    15   10   32 1
    16   11   12 1
    17   12   13 2
    18   12   14 2
    19   12   15 1
    20   16   17 2
    21   16   18 1
    22   18   19 1
    23   18   22 1
    24   18   33 1
    25   19   20 1
    26   19   21 1
    27   22   23 am
    28   23   24 2
    29   23   25 1
    30   25   26 1
    31   26   27 1
    32   26   28 1
    33   26   29 1
    34    2   34 1
    35    4   35 1
    36    4   36 1
    37    5   37 1
    38    5   38 1
    39    5   39 1
    40    8   40 1
    41    8   41 1
    42    9   42 1
    43    9   43 1
    44   11   44 1
    45   15   45 1
    46   15   46 1
    47   15   47 1
    48   19   48 1
    49   20   49 1
    50   20   50 1
    51   20   51 1
    52   21   52 1
    53   21   53 1
    54   21   54 1
    55   22   55 1
    56   27   56 1
    57   27   57 1
    58   27   58 1
    59   28   59 1
    60   28   60 1
    61   28   61 1
    62   29   62 1
    63   29   63 1
    64   29   64 1
@<TRIPOS>SUBSTRUCTURE
     1 <0>         1 GROUP 0 A     ****
@<TRIPOS>MOLECULE
MiniDrugBank_345
   36    37     1     0     0
SMALL
NO_CHARGES

@<TRIPOS>ATOM
      1 O1         -1.3885   -1.6562    0.3985 O.2       1 <0>        0.00000
      2 O2          3.2797    2.6223   -0.5383 O.3       1 <0>        0.00000
      3 O3          2.3077   -2.6890   -0.2651 O.3       1 <0>        0.00000
      4 N1          0.6740   -0.5163    0.5770 N.am      1 <0>        0.00000
      5 N2          0.1345    1.1382   -1.0052 N.2       1 <0>        0.00000
      6 N3          0.3259    2.1680    1.6028 N.3       1 <0>        0.00000
      7 N4         -3.2762    2.5493   -1.1004 N.pl3     1 <0>        0.00000
      8 N5         -4.7841    1.9439    0.4134 N.ar      1 <0>        0.00000
      9 C1          1.1956    0.6625   -0.0767 C.3       1 <0>        0.00000
     10 C2          1.5308    1.7870    0.8919 C.3       1 <0>        0.00000
     11 C3         -0.8511    0.3082   -0.8546 C.2       1 <0>        0.00000
     12 C4          1.4437   -1.3146    1.5074 C.3       1 <0>        0.00000
     13 C5         -0.5899   -0.7849    0.1382 C.2       1 <0>        0.00000
     14 C6          2.0975    3.0006    0.1578 C.3       1 <0>        0.00000
     15 C7         -2.1490    0.3761   -1.5764 C.3       1 <0>        0.00000
     16 C8          2.6970   -1.8748    0.8337 C.3       1 <0>        0.00000
     17 C9         -3.1805    1.2031   -0.8513 C.ar      1 <0>        0.00000
     18 C10        -4.1058    0.8042    0.0843 C.ar      1 <0>        0.00000
     19 C11        -4.2515    2.9651   -0.3233 C.ar      1 <0>        0.00000
     20 H1          3.6107    3.4165   -0.9916 H         1 <0>        0.00000
     21 H2          3.1230   -3.0293   -0.6715 H         1 <0>        0.00000
     22 H3          0.0439    1.6382    2.4127 H         1 <0>        0.00000
     23 H4         -0.3162    2.8145    1.1716 H         1 <0>        0.00000
     24 H5         -2.7109    3.0848   -1.7473 H         1 <0>        0.00000
     25 H6          2.0790    0.3753   -0.6583 H         1 <0>        0.00000
     26 H7          2.2607    1.4326    1.6294 H         1 <0>        0.00000
     27 H8          0.8236   -2.1443    1.8938 H         1 <0>        0.00000
     28 H9          1.7468   -0.6951    2.3707 H         1 <0>        0.00000
     29 H10         1.3801    3.3742   -0.5803 H         1 <0>        0.00000
     30 H11         2.3465    3.8124    0.8499 H         1 <0>        0.00000
     31 H12        -2.5406   -0.6389   -1.7274 H         1 <0>        0.00000
     32 H13        -1.9867    0.7829   -2.5832 H         1 <0>        0.00000
     33 H14         3.2744   -2.4953    1.5261 H         1 <0>        0.00000
     34 H15         3.3344   -1.0652    0.4636 H         1 <0>        0.00000
     35 H16        -4.3115   -0.1640    0.5123 H         1 <0>        0.00000
     36 H17        -4.6010    3.9868   -0.2644 H         1 <0>        0.00000
@<TRIPOS>BOND
     1    1   13 2
     2    2   14 1
     3    3   16 1
     4    4    9 1
     5    4   12 1
     6    4   13 am
     7    5    9 1
     8    5   11 2
     9    6   10 1
    10    7   17 1
    11    7   19 1
    12    8   18 1
    13    8   19 2
    14    9   10 1
    15   10   14 1
    16   11   13 1
    17   11   15 1
    18   12   16 1
    19   15   17 1
    20   17   18 2
    21    2   20 1
    22    3   21 1
    23    6   22 1
    24    6   23 1
    25    7   24 1
    26    9   25 1
    27   10   26 1
    28   12   27 1
    29   12   28 1
    30   14   29 1
    31   14   30 1
    32   15   31 1
    33   15   32 1
    34   16   33 1
    35   16   34 1
    36   18   35 1
    37   19   36 1
@<TRIPOS>SUBSTRUCTURE
     1 <0>         1 GROUP 0 A     ****
@<TRIPOS>MOLECULE
MiniDrugBank_346
   32    32     1     0     0
SMALL
NO_CHARGES

@<TRIPOS>ATOM
      1 O1         -4.0878    1.8504   -1.3121 O.3       1 <0>        0.00000
      2 C1         -2.8163    2.3278   -1.2727 C.2       1 <0>        0.00000
      3 O2         -2.5578    3.5232   -1.2282 O.2       1 <0>        0.00000
      4 C2         -1.7882    1.2155   -1.3291 C.3       1 <0>        0.00000
      5 C3         -1.3904    0.6888    0.0554 C.3       1 <0>        0.00000
      6 C4         -2.5416    0.0430    0.7908 C.ar      1 <0>        0.00000
      7 C5         -3.0190    0.4777    2.0081 C.ar      1 <0>        0.00000
      8 S1         -4.3206   -0.5326    2.4760 S.3       1 <0>        0.00000
      9 N1         -4.2718   -1.5135    1.1353 N.ar      1 <0>        0.00000
     10 C6         -3.2889   -1.0852    0.3468 C.ar      1 <0>        0.00000
     11 O3         -3.0199   -1.7362   -0.8673 O.3       1 <0>        0.00000
     12 C7         -2.5864    1.5956    2.8688 C.3       1 <0>        0.00000
     13 C8         -2.7063    2.9741    2.1355 C.3       1 <0>        0.00000
     14 C9         -1.0926    1.4429    3.3136 C.3       1 <0>        0.00000
     15 C10        -3.3875    1.7816    4.2081 C.3       1 <0>        0.00000
     16 N2         -0.5607    1.7411   -1.9940 N.4       1 <0>        0.00000
     17 H1         -2.1571    0.3985   -1.9588 H         1 <0>        0.00000
     18 H2         -4.1687    0.8733   -1.3461 H         1 <0>        0.00000
     19 H3         -0.9666    1.4964    0.6668 H         1 <0>        0.00000
     20 H4         -0.5928   -0.0609   -0.0386 H         1 <0>        0.00000
     21 H5         -2.3906    3.8225    2.7538 H         1 <0>        0.00000
     22 H6         -2.0940    2.9949    1.2273 H         1 <0>        0.00000
     23 H7         -3.7462    3.1487    1.8351 H         1 <0>        0.00000
     24 H8         -0.7814    2.2772    3.9517 H         1 <0>        0.00000
     25 H9         -0.9000    0.5212    3.8751 H         1 <0>        0.00000
     26 H10        -0.4388    1.4402    2.4335 H         1 <0>        0.00000
     27 H11        -3.0291    2.6239    4.8121 H         1 <0>        0.00000
     28 H12        -4.4485    1.9634    4.0004 H         1 <0>        0.00000
     29 H13        -3.3103    0.8830    4.8312 H         1 <0>        0.00000
     30 H14        -0.6799    1.7529   -3.0097 H         1 <0>        0.00000
     31 H15         0.2469    1.1544   -1.7707 H         1 <0>        0.00000
     32 H16        -0.3634    2.6947   -1.6810 H         1 <0>        0.00000
@<TRIPOS>BOND
     1    1    2 1
     2    2    3 2
     3    2    4 1
     4    4    5 1
     5    4   16 1
     6    4   17 1
     7    5    6 1
     8    6    7 2
     9    6   10 1
    10    7    8 1
    11    7   12 1
    12    8    9 1
    13    9   10 2
    14   10   11 1
    15   12   13 1
    16   12   14 1
    17   12   15 1
    18    1   18 1
    19    5   19 1
    20    5   20 1
    21   13   21 1
    22   13   22 1
    23   13   23 1
    24   14   24 1
    25   14   25 1
    26   14   26 1
    27   15   27 1
    28   15   28 1
    29   15   29 1
    30   16   30 1
    31   16   31 1
    32   16   32 1
@<TRIPOS>SUBSTRUCTURE
     1 <0>         1 GROUP 0 A     ****
@<TRIPOS>MOLECULE
MiniDrugBank_347
   53    54     1     0     0
SMALL
NO_CHARGES

@<TRIPOS>ATOM
      1 C1          2.4742   -9.6801   -1.2674 C.3       1 <0>        0.00000
      2 C2          2.3030   -8.5632   -0.2502 C.3       1 <0>        0.00000
      3 C3          3.1633   -7.3521   -0.5993 C.3       1 <0>        0.00000
      4 C4          2.9949   -6.2314    0.4167 C.3       1 <0>        0.00000
      5 O1          3.8200   -5.1370    0.0350 O.3       1 <0>        0.00000
      6 C5          3.3873   -3.8936    0.3806 C.ar      1 <0>        0.00000
      7 C6          2.6164   -3.7178    1.5296 C.ar      1 <0>        0.00000
      8 C7          2.1729   -2.4437    1.8838 C.ar      1 <0>        0.00000
      9 C8          2.5004   -1.3452    1.0889 C.ar      1 <0>        0.00000
     10 C9          3.2714   -1.5210   -0.0602 C.ar      1 <0>        0.00000
     11 C10         3.7148   -2.7952   -0.4144 C.ar      1 <0>        0.00000
     12 S1          1.9387    0.2687    1.5374 S.o2      1 <0>        0.00000
     13 O2          1.2582    0.1576    2.8127 O.2       1 <0>        0.00000
     14 O3          3.0492    1.1855    1.3694 O.2       1 <0>        0.00000
     15 N1          0.7931    0.5445    0.3092 N.pl3     1 <0>        0.00000
     16 C11        -0.3578   -0.4059    0.2078 C.3       1 <0>        0.00000
     17 C12        -1.6034    0.4708    0.1667 C.3       1 <0>        0.00000
     18 C13        -1.1077    1.7583   -0.4689 C.3       1 <0>        0.00000
     19 C14         0.2832    1.9312    0.1305 C.3       1 <0>        0.00000
     20 C15         1.2221    2.6113   -0.8030 C.2       1 <0>        0.00000
     21 O4          1.4214    2.1971   -1.9525 O.2       1 <0>        0.00000
     22 N2          1.8213    3.7294   -0.2680 N.am      1 <0>        0.00000
     23 O5          2.7086    4.4210   -1.1039 O.3       1 <0>        0.00000
     24 N3         -2.0797    0.7371    1.5481 N.pl3     1 <0>        0.00000
     25 S2         -3.6731    0.3087    1.9646 S.o2      1 <0>        0.00000
     26 C16        -3.6328   -1.4436    1.6650 C.3       1 <0>        0.00000
     27 O6         -4.6077    0.9001    1.0272 O.2       1 <0>        0.00000
     28 O7         -3.8340    0.5002    3.3932 O.2       1 <0>        0.00000
     29 H1          1.8539  -10.5443   -1.0093 H         1 <0>        0.00000
     30 H2          2.1942   -9.3432   -2.2706 H         1 <0>        0.00000
     31 H3          3.5179  -10.0081   -1.2982 H         1 <0>        0.00000
     32 H4          1.2472   -8.2711   -0.2112 H         1 <0>        0.00000
     33 H5          2.5729   -8.9380    0.7439 H         1 <0>        0.00000
     34 H6          4.2209   -7.6395   -0.6512 H         1 <0>        0.00000
     35 H7          2.9055   -6.9784   -1.5983 H         1 <0>        0.00000
     36 H8          1.9559   -5.8885    0.4515 H         1 <0>        0.00000
     37 H9          3.2952   -6.5616    1.4163 H         1 <0>        0.00000
     38 H10         2.3581   -4.5696    2.1529 H         1 <0>        0.00000
     39 H11         1.5729   -2.3180    2.7811 H         1 <0>        0.00000
     40 H12         3.5323   -0.6722   -0.6867 H         1 <0>        0.00000
     41 H13         4.3151   -2.9258   -1.3107 H         1 <0>        0.00000
     42 H14        -0.2423   -0.9603   -0.7302 H         1 <0>        0.00000
     43 H15        -0.3710   -1.1219    1.0355 H         1 <0>        0.00000
     44 H16        -2.4200    0.0080   -0.3952 H         1 <0>        0.00000
     45 H17        -1.0585    1.6399   -1.5588 H         1 <0>        0.00000
     46 H18        -1.7479    2.6218   -0.2592 H         1 <0>        0.00000
     47 H19         0.2464    2.4613    1.0875 H         1 <0>        0.00000
     48 H20         1.6310    4.0359    0.6795 H         1 <0>        0.00000
     49 H21         2.9835    5.1400   -0.5102 H         1 <0>        0.00000
     50 H22        -1.3536    0.6126    2.2589 H         1 <0>        0.00000
     51 H23        -4.6165   -1.8359    1.9012 H         1 <0>        0.00000
     52 H24        -3.3889   -1.5882    0.6178 H         1 <0>        0.00000
     53 H25        -2.8712   -1.8659    2.3121 H         1 <0>        0.00000
@<TRIPOS>BOND
     1    1    2 1
     2    2    3 1
     3    3    4 1
     4    4    5 1
     5    5    6 1
     6    6    7 ar
     7    7    8 ar
     8    8    9 ar
     9    9   10 ar
    10   10   11 ar
    11    6   11 ar
    12    9   12 1
    13   12   13 2
    14   12   14 2
    15   12   15 1
    16   15   16 1
    17   16   17 1
    18   17   18 1
    19   18   19 1
    20   15   19 1
    21   19   20 1
    22   20   21 2
    23   20   22 am
    24   22   23 1
    25   17   24 1
    26   24   25 1
    27   25   26 1
    28   25   27 2
    29   25   28 2
    30    1   29 1
    31    1   30 1
    32    1   31 1
    33    2   32 1
    34    2   33 1
    35    3   34 1
    36    3   35 1
    37    4   36 1
    38    4   37 1
    39    7   38 1
    40    8   39 1
    41   10   40 1
    42   11   41 1
    43   16   42 1
    44   16   43 1
    45   17   44 1
    46   18   45 1
    47   18   46 1
    48   19   47 1
    49   22   48 1
    50   23   49 1
    51   24   50 1
    52   26   51 1
    53   26   52 1
    54   26   53 1
@<TRIPOS>SUBSTRUCTURE
     1 <0>         1 GROUP 0 A     ****
@<TRIPOS>MOLECULE
MiniDrugBank_348
   38    38     1     0     0
SMALL
NO_CHARGES

@<TRIPOS>ATOM
      1 I1         -6.9415   -1.1431   -2.0543 I         1 <0>        0.00000
      2 I2         -4.3663   -4.2238    2.5660 I         1 <0>        0.00000
      3 I3        -10.1628   -2.9341    2.8805 I         1 <0>        0.00000
      4 O1         -3.3247   -1.4680    1.2161 O.2       1 <0>        0.00000
      5 O2        -11.5172   -0.6049   -1.5843 O.3       1 <0>        0.00000
      6 O3        -11.9411    0.9803   -0.0139 O.2       1 <0>        0.00000
      7 N1         -4.7075   -2.6419   -0.2745 N.am      1 <0>        0.00000
      8 C1         -2.4226   -2.2411   -0.8820 C.3       1 <0>        0.00000
      9 C2         -5.9464   -2.6866    0.4082 C.ar      1 <0>        0.00000
     10 C3         -8.3012   -2.1596    0.5268 C.ar      1 <0>        0.00000
     11 C4         -1.0801   -1.6347   -0.4793 C.3       1 <0>        0.00000
     12 C5         -7.0840   -2.1061   -0.1524 C.ar      1 <0>        0.00000
     13 C6         -3.5181   -2.0654    0.1625 C.2       1 <0>        0.00000
     14 C7         -9.5021   -1.5540   -0.0506 C.2       1 <0>        0.00000
     15 C8         -9.9155   -0.2990    0.1289 C.2       1 <0>        0.00000
     16 C9         -6.0258   -3.3208    1.6480 C.ar      1 <0>        0.00000
     17 C10        -8.3806   -2.7937    1.7667 C.ar      1 <0>        0.00000
     18 C11        -9.2365    0.7630    0.9631 C.3       1 <0>        0.00000
     19 C12        -7.2429   -3.3743    2.3273 C.ar      1 <0>        0.00000
     20 C13        -0.0094   -1.8278   -1.5441 C.3       1 <0>        0.00000
     21 C14        -9.7218    0.7634    2.4068 C.3       1 <0>        0.00000
     22 C15       -11.2290    0.0929   -0.4610 C.2       1 <0>        0.00000
     23 H1        -12.3605   -0.3132   -1.9919 H         1 <0>        0.00000
     24 H2         -4.6833   -3.0824   -1.1918 H         1 <0>        0.00000
     25 H3         -2.3023   -3.3076   -1.1061 H         1 <0>        0.00000
     26 H4         -2.7726   -1.7483   -1.7975 H         1 <0>        0.00000
     27 H5         -1.2153   -0.5588   -0.3169 H         1 <0>        0.00000
     28 H6         -0.7331   -2.0597    0.4695 H         1 <0>        0.00000
     29 H7        -10.0806   -2.2537   -0.6327 H         1 <0>        0.00000
     30 H8         -8.1512    0.6033    0.9463 H         1 <0>        0.00000
     31 H9         -9.3857    1.7618    0.5391 H         1 <0>        0.00000
     32 H10        -7.3036   -3.8689    3.2944 H         1 <0>        0.00000
     33 H11         0.9450   -1.3880   -1.2400 H         1 <0>        0.00000
     34 H12        -0.3177   -1.3486   -2.4787 H         1 <0>        0.00000
     35 H13         0.1526   -2.8912   -1.7476 H         1 <0>        0.00000
     36 H14        -9.2214    1.5373    2.9980 H         1 <0>        0.00000
     37 H15       -10.7979    0.9616    2.4409 H         1 <0>        0.00000
     38 H16        -9.5409   -0.2021    2.8893 H         1 <0>        0.00000
@<TRIPOS>BOND
     1    1   12 1
     2    2   16 1
     3    3   17 1
     4    4   13 2
     5    5   22 1
     6    6   22 2
     7    7    9 1
     8    7   13 am
     9    8   11 1
    10    8   13 1
    11    9   12 ar
    12    9   16 ar
    13   10   12 ar
    14   10   14 1
    15   10   17 ar
    16   11   20 1
    17   14   15 2
    18   15   18 1
    19   15   22 1
    20   16   19 ar
    21   17   19 ar
    22   18   21 1
    23    5   23 1
    24    7   24 1
    25    8   25 1
    26    8   26 1
    27   11   27 1
    28   11   28 1
    29   14   29 1
    30   18   30 1
    31   18   31 1
    32   19   32 1
    33   20   33 1
    34   20   34 1
    35   20   35 1
    36   21   36 1
    37   21   37 1
    38   21   38 1
@<TRIPOS>SUBSTRUCTURE
     1 <0>         1 GROUP 0 A     ****
@<TRIPOS>MOLECULE
MiniDrugBank_349
   18    19     1     0     0
SMALL
NO_CHARGES

@<TRIPOS>ATOM
      1 I1          0.5606   -0.7976    0.2537 I         1 <0>        0.00000
      2 Cl1         0.3426    4.6957   -1.0061 Cl        1 <0>        0.00000
      3 O1         -2.6010   -0.3382   -0.2690 O.3       1 <0>        0.00000
      4 N1         -4.0027    1.8858   -0.9548 N.ar      1 <0>        0.00000
      5 C1         -1.9747    3.1875   -0.9770 C.ar      1 <0>        0.00000
      6 C2         -2.6683    1.9725   -0.7968 C.ar      1 <0>        0.00000
      7 C3         -1.9323    0.8440   -0.4461 C.ar      1 <0>        0.00000
      8 C4         -0.5812    3.2417   -0.8037 C.ar      1 <0>        0.00000
      9 C5         -2.7151    4.3237   -1.3301 C.ar      1 <0>        0.00000
     10 C6         -0.5469    0.8976   -0.2738 C.ar      1 <0>        0.00000
     11 C7          0.1298    2.0977   -0.4527 C.ar      1 <0>        0.00000
     12 C8         -4.0902    4.2376   -1.4936 C.ar      1 <0>        0.00000
     13 C9         -4.6804    3.0058   -1.2959 C.ar      1 <0>        0.00000
     14 H1         -1.9833   -1.0506   -0.0274 H         1 <0>        0.00000
     15 H2         -2.2523    5.2938   -1.4879 H         1 <0>        0.00000
     16 H3          1.2086    2.1482   -0.3214 H         1 <0>        0.00000
     17 H4         -4.6778    5.1054   -1.7684 H         1 <0>        0.00000
     18 H5         -5.7517    2.8780   -1.4106 H         1 <0>        0.00000
@<TRIPOS>BOND
     1    1   10 1
     2    2    8 1
     3    3    7 1
     4    4    6 ar
     5    4   13 ar
     6    5    6 ar
     7    5    8 ar
     8    5    9 ar
     9    6    7 ar
    10    7   10 ar
    11    8   11 ar
    12    9   12 ar
    13   10   11 ar
    14   12   13 ar
    15    3   14 1
    16    9   15 1
    17   11   16 1
    18   12   17 1
    19   13   18 1
@<TRIPOS>SUBSTRUCTURE
     1 <0>         1 GROUP 0 A     ****
@<TRIPOS>MOLECULE
MiniDrugBank_350
   42    44     1     0     0
SMALL
NO_CHARGES

@<TRIPOS>ATOM
      1 S1          0.3075    1.7289   -4.7314 S.3       1 <0>        0.00000
      2 N1          0.3762   -1.7400    1.6664 N.3       1 <0>        0.00000
      3 N2          1.1209   -0.7374   -2.3796 N.pl3     1 <0>        0.00000
      4 C1          0.9291   -1.5439   -1.2001 C.3       1 <0>        0.00000
      5 C2         -0.4741   -1.3519   -0.6240 C.3       1 <0>        0.00000
      6 C3          1.9830   -1.2196   -0.1416 C.3       1 <0>        0.00000
      7 C4         -0.6473   -2.1248    0.6846 C.3       1 <0>        0.00000
      8 C5          1.7286   -1.9958    1.1517 C.3       1 <0>        0.00000
      9 C6          1.0006    0.7091   -2.2491 C.3       1 <0>        0.00000
     10 C7          1.4259   -1.3239   -3.6078 C.ar      1 <0>        0.00000
     11 C8          0.1666   -2.4491    2.9285 C.3       1 <0>        0.00000
     12 C9         -0.0768    1.2451   -3.1344 C.ar      1 <0>        0.00000
     13 C10         0.5435   -2.2388   -4.1822 C.ar      1 <0>        0.00000
     14 C11         2.6139   -0.9962   -4.2612 C.ar      1 <0>        0.00000
     15 C12        -1.4125    1.4225   -2.8479 C.ar      1 <0>        0.00000
     16 C13         0.8492   -2.8262   -5.4099 C.ar      1 <0>        0.00000
     17 C14         2.9196   -1.5835   -5.4889 C.ar      1 <0>        0.00000
     18 C15         2.0372   -2.4985   -6.0633 C.ar      1 <0>        0.00000
     19 C16        -2.1300    1.9626   -3.9540 C.ar      1 <0>        0.00000
     20 C17        -1.3152    2.1778   -5.0439 C.ar      1 <0>        0.00000
     21 H1          1.0458   -2.6014   -1.5010 H         1 <0>        0.00000
     22 H2         -0.6772   -0.2915   -0.4511 H         1 <0>        0.00000
     23 H3         -1.2112   -1.7092   -1.3504 H         1 <0>        0.00000
     24 H4          2.9726   -1.4840   -0.5285 H         1 <0>        0.00000
     25 H5          1.9953   -0.1476    0.0733 H         1 <0>        0.00000
     26 H6         -0.5585   -3.1950    0.4607 H         1 <0>        0.00000
     27 H7         -1.6563   -1.9622    1.0859 H         1 <0>        0.00000
     28 H8          2.4883   -1.7367    1.9010 H         1 <0>        0.00000
     29 H9          1.8435   -3.0650    0.9335 H         1 <0>        0.00000
     30 H10         1.9725    1.1320   -2.5010 H         1 <0>        0.00000
     31 H11         0.8034    0.9148   -1.1980 H         1 <0>        0.00000
     32 H12         0.9344   -2.1461    3.6320 H         1 <0>        0.00000
     33 H13         0.2287   -3.5168    2.7473 H         1 <0>        0.00000
     34 H14        -0.8142   -2.1956    3.3165 H         1 <0>        0.00000
     35 H15        -0.3852   -2.5013   -3.6815 H         1 <0>        0.00000
     36 H16         3.3089   -0.2854   -3.8221 H         1 <0>        0.00000
     37 H17        -1.8583    1.1790   -1.8917 H         1 <0>        0.00000
     38 H18         0.1626   -3.5394   -5.8566 H         1 <0>        0.00000
     39 H19         3.8450   -1.3295   -5.9977 H         1 <0>        0.00000
     40 H20         2.2745   -2.9557   -7.0194 H         1 <0>        0.00000
     41 H21        -3.1894    2.1834   -3.9508 H         1 <0>        0.00000
     42 H22        -1.5953    2.5771   -6.0084 H         1 <0>        0.00000
@<TRIPOS>BOND
     1    1   12 1
     2    1   20 1
     3    2    7 1
     4    2    8 1
     5    2   11 1
     6    3    4 1
     7    3    9 1
     8    3   10 1
     9    4    5 1
    10    4    6 1
    11    5    7 1
    12    6    8 1
    13    9   12 1
    14   10   13 ar
    15   10   14 ar
    16   12   15 2
    17   13   16 ar
    18   14   17 ar
    19   15   19 1
    20   16   18 ar
    21   17   18 ar
    22   19   20 2
    23    4   21 1
    24    5   22 1
    25    5   23 1
    26    6   24 1
    27    6   25 1
    28    7   26 1
    29    7   27 1
    30    8   28 1
    31    8   29 1
    32    9   30 1
    33    9   31 1
    34   11   32 1
    35   11   33 1
    36   11   34 1
    37   13   35 1
    38   14   36 1
    39   15   37 1
    40   16   38 1
    41   17   39 1
    42   18   40 1
    43   19   41 1
    44   20   42 1
@<TRIPOS>SUBSTRUCTURE
     1 <0>         1 GROUP 0 A     ****
@<TRIPOS>MOLECULE
MiniDrugBank_351
   36    35     1     0     0
SMALL
NO_CHARGES

@<TRIPOS>ATOM
      1 C1         -2.6216    2.3833    0.2536 C.3       1 <0>        0.00000
      2 C2         -3.1471    2.2049   -1.1619 C.3       1 <0>        0.00000
      3 C3         -3.2485    0.7272   -1.5393 C.3       1 <0>        0.00000
      4 C4         -3.7777    0.5515   -2.9646 C.3       1 <0>        0.00000
      5 C5         -3.8779   -0.9289   -3.3391 C.3       1 <0>        0.00000
      6 C6         -4.4032   -1.1639   -4.7582 C.3       1 <0>        0.00000
      7 C7         -4.5034   -2.6442   -5.1326 C.3       1 <0>        0.00000
      8 C8         -5.0328   -2.8202   -6.5582 C.3       1 <0>        0.00000
      9 C9         -5.1337   -4.3014   -6.9346 C.3       1 <0>        0.00000
     10 C10        -5.6589   -4.5016   -8.3510 C.3       1 <0>        0.00000
     11 O1         -5.7330   -5.8882   -8.6490 O.3       1 <0>        0.00000
     12 C11        -6.1923   -6.2146   -9.8985 C.2       1 <0>        0.00000
     13 O2         -6.5328   -5.4012  -10.7486 O.2       1 <0>        0.00000
     14 S1         -6.2720   -7.9432  -10.2348 S.3       1 <0>        0.00000
     15 H1         -2.5522    3.4440    0.5154 H         1 <0>        0.00000
     16 H2         -1.6283    1.9364    0.3627 H         1 <0>        0.00000
     17 H3         -3.2923    1.8999    0.9708 H         1 <0>        0.00000
     18 H4         -4.1328    2.6780   -1.2419 H         1 <0>        0.00000
     19 H5         -2.4804    2.7233   -1.8608 H         1 <0>        0.00000
     20 H6         -2.2613    0.2571   -1.4536 H         1 <0>        0.00000
     21 H7         -3.9135    0.2136   -0.8344 H         1 <0>        0.00000
     22 H8         -3.1097    1.0711   -3.6606 H         1 <0>        0.00000
     23 H9         -4.7656    1.0200   -3.0494 H         1 <0>        0.00000
     24 H10        -2.8974   -1.4073   -3.2259 H         1 <0>        0.00000
     25 H11        -4.5562   -1.4302   -2.6373 H         1 <0>        0.00000
     26 H12        -3.7623   -0.6416   -5.4789 H         1 <0>        0.00000
     27 H13        -5.3984   -0.7080   -4.8329 H         1 <0>        0.00000
     28 H14        -5.1693   -3.1576   -4.4284 H         1 <0>        0.00000
     29 H15        -3.5190   -3.1189   -5.0556 H         1 <0>        0.00000
     30 H16        -4.3661   -2.3079   -7.2626 H         1 <0>        0.00000
     31 H17        -6.0180   -2.3463   -6.6422 H         1 <0>        0.00000
     32 H18        -4.1474   -4.7718   -6.8491 H         1 <0>        0.00000
     33 H19        -5.8044   -4.8021   -6.2258 H         1 <0>        0.00000
     34 H20        -4.9820   -4.0310   -9.0710 H         1 <0>        0.00000
     35 H21        -6.6547   -4.0617   -8.4658 H         1 <0>        0.00000
     36 H22        -5.8146   -8.3584   -9.0445 H         1 <0>        0.00000
@<TRIPOS>BOND
     1    1    2 1
     2    2    3 1
     3    3    4 1
     4    4    5 1
     5    5    6 1
     6    6    7 1
     7    7    8 1
     8    8    9 1
     9    9   10 1
    10   10   11 1
    11   11   12 1
    12   12   14 1
    13   12   13 2
    14    1   15 1
    15    1   16 1
    16    1   17 1
    17    2   18 1
    18    2   19 1
    19    3   20 1
    20    3   21 1
    21    4   22 1
    22    4   23 1
    23    5   24 1
    24    5   25 1
    25    6   26 1
    26    6   27 1
    27    7   28 1
    28    7   29 1
    29    8   30 1
    30    8   31 1
    31    9   32 1
    32    9   33 1
    33   10   34 1
    34   10   35 1
    35   14   36 1
@<TRIPOS>SUBSTRUCTURE
     1 <0>         1 GROUP 0 A     ****
@<TRIPOS>MOLECULE
MiniDrugBank_352
   38    37     1     0     0
SMALL
NO_CHARGES

@<TRIPOS>ATOM
      1 C1         -2.3627   -6.8209   -2.8004 C.2       1 <0>        0.00000
      2 O1         -1.2742   -7.1918   -3.2174 O.2       1 <0>        0.00000
      3 O2         -3.4722   -7.6052   -2.8226 O.3       1 <0>        0.00000
      4 C2         -2.6563   -5.4667   -2.1959 C.3       1 <0>        0.00000
      5 C3         -1.4130   -4.5787   -2.1576 C.3       1 <0>        0.00000
      6 C4         -1.6720   -3.1970   -1.5510 C.3       1 <0>        0.00000
      7 C5         -0.4593   -2.2626   -1.4869 C.3       1 <0>        0.00000
      8 C6         -0.7168   -0.8800   -0.8804 C.3       1 <0>        0.00000
      9 C7          0.5286    0.0081   -0.8426 C.3       1 <0>        0.00000
     10 C8          0.2157    1.3754   -0.2282 C.3       1 <0>        0.00000
     11 C9          1.4615    2.2633   -0.1906 C.3       1 <0>        0.00000
     12 C10         1.2065    3.6463    0.4156 C.3       1 <0>        0.00000
     13 C11         2.4519    4.5343    0.4533 C.3       1 <0>        0.00000
     14 C12         2.1338    5.8893    1.0642 C.3       1 <0>        0.00000
     15 Br1         3.7386    6.9912    1.0962 Br        1 <0>        0.00000
     16 H1         -4.2815   -7.1872   -2.4578 H         1 <0>        0.00000
     17 H2         -3.4324   -4.9838   -2.8000 H         1 <0>        0.00000
     18 H3         -3.0373   -5.6305   -1.1827 H         1 <0>        0.00000
     19 H4         -0.6072   -5.0864   -1.6146 H         1 <0>        0.00000
     20 H5         -1.0406   -4.4368   -3.1806 H         1 <0>        0.00000
     21 H6         -2.0603   -3.3252   -0.5326 H         1 <0>        0.00000
     22 H7         -2.4754   -2.7115   -2.1176 H         1 <0>        0.00000
     23 H8          0.3280   -2.7617   -0.9077 H         1 <0>        0.00000
     24 H9         -0.0499   -2.1303   -2.4955 H         1 <0>        0.00000
     25 H10        -1.1324   -0.9821    0.1286 H         1 <0>        0.00000
     26 H11        -1.4899   -0.3856   -1.4820 H         1 <0>        0.00000
     27 H12         0.9149    0.1429   -1.8601 H         1 <0>        0.00000
     28 H13         1.3174   -0.4756   -0.2558 H         1 <0>        0.00000
     29 H14        -0.1707    1.2399    0.7892 H         1 <0>        0.00000
     30 H15        -0.5730    1.8595   -0.8148 H         1 <0>        0.00000
     31 H16         1.8673    2.3749   -1.2034 H         1 <0>        0.00000
     32 H17         2.2368    1.7672    0.4067 H         1 <0>        0.00000
     33 H18         0.4086    4.1510   -0.1429 H         1 <0>        0.00000
     34 H19         0.8356    3.5067    1.4387 H         1 <0>        0.00000
     35 H20         3.2397    4.0378    1.0335 H         1 <0>        0.00000
     36 H21         2.8438    4.6740   -0.5608 H         1 <0>        0.00000
     37 H22         1.3896    6.4375    0.4802 H         1 <0>        0.00000
     38 H23         1.7947    5.8024    2.1001 H         1 <0>        0.00000
@<TRIPOS>BOND
     1    1    2 2
     2    1    3 1
     3    1    4 1
     4    4    5 1
     5    5    6 1
     6    6    7 1
     7    7    8 1
     8    8    9 1
     9    9   10 1
    10   10   11 1
    11   11   12 1
    12   12   13 1
    13   13   14 1
    14   14   15 1
    15    3   16 1
    16    4   17 1
    17    4   18 1
    18    5   19 1
    19    5   20 1
    20    6   21 1
    21    6   22 1
    22    7   23 1
    23    7   24 1
    24    8   25 1
    25    8   26 1
    26    9   27 1
    27    9   28 1
    28   10   29 1
    29   10   30 1
    30   11   31 1
    31   11   32 1
    32   12   33 1
    33   12   34 1
    34   13   35 1
    35   13   36 1
    36   14   37 1
    37   14   38 1
@<TRIPOS>SUBSTRUCTURE
     1 <0>         1 GROUP 0 A     ****
@<TRIPOS>MOLECULE
MiniDrugBank_353
   36    36     1     0     0
SMALL
NO_CHARGES

@<TRIPOS>ATOM
      1 C1          4.1357    1.6287   -2.8233 C.3       1 <0>        0.00000
      2 C2          4.7590    0.2642   -2.7656 C.3       1 <0>        0.00000
      3 C3          3.3523    0.4259   -3.2735 C.3       1 <0>        0.00000
      4 N1          0.2581    1.6713    0.0856 N.3       1 <0>        0.00000
      5 C4         -0.0255    0.3147   -0.3909 C.3       1 <0>        0.00000
      6 C5         -0.1995    0.2708   -1.9384 C.3       1 <0>        0.00000
      7 C6          1.0322    0.7392   -2.7451 C.3       1 <0>        0.00000
      8 N2          2.2259   -0.0590   -2.4889 N.3       1 <0>        0.00000
      9 O1         -0.5042   -1.0843   -2.2906 O.3       1 <0>        0.00000
     10 O2         -1.3145    1.1009   -2.2828 O.3       1 <0>        0.00000
     11 C7         -1.2723   -0.2306    0.3488 C.3       1 <0>        0.00000
     12 C8         -1.1475   -0.3184    1.8779 C.3       1 <0>        0.00000
     13 C9         -2.4020   -0.8619    2.5629 C.3       1 <0>        0.00000
     14 C10        -2.2249   -0.9278    4.0723 C.3       1 <0>        0.00000
     15 H1          0.8210   -0.3278   -0.1241 H         1 <0>        0.00000
     16 H2          3.8718    2.1007   -1.8847 H         1 <0>        0.00000
     17 H3          4.4906    2.3131   -3.5842 H         1 <0>        0.00000
     18 H4          5.5323    0.0321   -3.4878 H         1 <0>        0.00000
     19 H5          4.9126   -0.1773   -1.7884 H         1 <0>        0.00000
     20 H6          3.2105    0.3172   -4.3441 H         1 <0>        0.00000
     21 H7         -0.5074    2.3084    0.2412 H         1 <0>        0.00000
     22 H8          1.2054    2.0149    0.0569 H         1 <0>        0.00000
     23 H9          0.8083    0.6738   -3.8171 H         1 <0>        0.00000
     24 H10         1.2432    1.7968   -2.5489 H         1 <0>        0.00000
     25 H11         2.0371   -1.0297   -2.7348 H         1 <0>        0.00000
     26 H12        -0.6163   -1.1310   -3.2546 H         1 <0>        0.00000
     27 H13        -1.4259    1.0758   -3.2478 H         1 <0>        0.00000
     28 H14        -1.5125   -1.2316   -0.0311 H         1 <0>        0.00000
     29 H15        -2.1424    0.3996    0.1226 H         1 <0>        0.00000
     30 H16        -0.2795   -0.9289    2.1532 H         1 <0>        0.00000
     31 H17        -0.9449    0.6917    2.2562 H         1 <0>        0.00000
     32 H18        -2.6322   -1.8674    2.1954 H         1 <0>        0.00000
     33 H19        -3.2613   -0.2227    2.3296 H         1 <0>        0.00000
     34 H20        -3.1322   -1.3187    4.5433 H         1 <0>        0.00000
     35 H21        -2.0276    0.0653    4.4885 H         1 <0>        0.00000
     36 H22        -1.3919   -1.5853    4.3410 H         1 <0>        0.00000
@<TRIPOS>BOND
     1    1    2 1
     2    1    3 1
     3    2    3 1
     4    3    8 1
     5    4    5 1
     6    5    6 1
     7    5   11 1
     8    5   15 1
     9    6    7 1
    10    6    9 1
    11    6   10 1
    12    7    8 1
    13   11   12 1
    14   12   13 1
    15   13   14 1
    16    1   16 1
    17    1   17 1
    18    2   18 1
    19    2   19 1
    20    3   20 1
    21    4   21 1
    22    4   22 1
    23    7   23 1
    24    7   24 1
    25    8   25 1
    26    9   26 1
    27   10   27 1
    28   11   28 1
    29   11   29 1
    30   12   30 1
    31   12   31 1
    32   13   32 1
    33   13   33 1
    34   14   34 1
    35   14   35 1
    36   14   36 1
@<TRIPOS>SUBSTRUCTURE
     1 <0>         1 GROUP 0 A     ****
@<TRIPOS>MOLECULE
MiniDrugBank_354
   34    36     1     0     0
SMALL
NO_CHARGES

@<TRIPOS>ATOM
      1 N1         -6.4970    1.0213    0.9806 N.pl3     1 <0>        0.00000
      2 C1         -5.3006    1.4984    0.4027 C.ar      1 <0>        0.00000
      3 N2         -5.1345    2.8273    0.2429 N.ar      1 <0>        0.00000
      4 C2         -3.9777    3.2034   -0.3537 C.ar      1 <0>        0.00000
      5 N3         -2.9849    2.4044   -0.8019 N.ar      1 <0>        0.00000
      6 C3         -3.2065    1.0937   -0.6090 C.ar      1 <0>        0.00000
      7 C4         -4.3502    0.6001   -0.0052 C.ar      1 <0>        0.00000
      8 C5         -4.2851   -0.8887    0.0098 C.3       1 <0>        0.00000
      9 I1         -4.1374   -1.6670    1.9735 I         1 <0>        0.00000
     10 N4         -3.0139   -1.2326   -0.6931 N.3       1 <0>        0.00000
     11 N5         -2.3874    0.0101   -0.9585 N.pl3     1 <0>        0.00000
     12 C6         -1.2372    0.1506   -1.8058 C.3       1 <0>        0.00000
     13 O1         -1.0387   -1.0743   -2.5303 O.3       1 <0>        0.00000
     14 C7          0.3102   -1.5176   -2.3127 C.3       1 <0>        0.00000
     15 C8          0.8608   -2.1300   -3.5879 C.3       1 <0>        0.00000
     16 O2          0.0492   -3.2342   -3.9538 O.3       1 <0>        0.00000
     17 C9          1.0771   -0.2902   -1.8545 C.3       1 <0>        0.00000
     18 O3          2.2143   -0.6521   -1.0952 O.3       1 <0>        0.00000
     19 C10         0.0348    0.4140   -1.0152 C.3       1 <0>        0.00000
     20 O4          0.3140    1.7990   -0.9216 O.3       1 <0>        0.00000
     21 H1         -7.1980    1.6701    1.3133 H         1 <0>        0.00000
     22 H2         -6.6223    0.0325    1.1527 H         1 <0>        0.00000
     23 H3         -3.8341    4.2690   -0.4883 H         1 <0>        0.00000
     24 H4         -5.1236   -1.3183   -0.5479 H         1 <0>        0.00000
     25 H5         -2.4185   -1.7548   -0.0506 H         1 <0>        0.00000
     26 H6         -1.4345    0.9369   -2.5441 H         1 <0>        0.00000
     27 H7          0.2914   -2.2849   -1.5289 H         1 <0>        0.00000
     28 H8          1.8845   -2.4784   -3.4306 H         1 <0>        0.00000
     29 H9          0.8488   -1.3965   -4.3977 H         1 <0>        0.00000
     30 H10         0.4252   -3.6036   -4.7701 H         1 <0>        0.00000
     31 H11         1.3995    0.3359   -2.6952 H         1 <0>        0.00000
     32 H12         2.6590    0.1727   -0.8336 H         1 <0>        0.00000
     33 H13         0.0022    0.0005    0.0008 H         1 <0>        0.00000
     34 H14        -0.3855    2.1944   -0.3740 H         1 <0>        0.00000
@<TRIPOS>BOND
     1    1    2 1
     2    2    3 ar
     3    3    4 ar
     4    4    5 ar
     5    5    6 ar
     6    6    7 ar
     7    2    7 ar
     8    7    8 1
     9    8    9 1
    10    8   10 1
    11   10   11 1
    12    6   11 1
    13   11   12 1
    14   12   13 1
    15   13   14 1
    16   14   15 1
    17   15   16 1
    18   14   17 1
    19   17   18 1
    20   17   19 1
    21   12   19 1
    22   19   20 1
    23    1   21 1
    24    1   22 1
    25    4   23 1
    26    8   24 1
    27   10   25 1
    28   12   26 1
    29   14   27 1
    30   15   28 1
    31   15   29 1
    32   16   30 1
    33   17   31 1
    34   18   32 1
    35   19   33 1
    36   20   34 1
@<TRIPOS>SUBSTRUCTURE
     1 <0>         1 GROUP 0 A     ****
@<TRIPOS>MOLECULE
MiniDrugBank_355
   39    38     1     0     0
SMALL
NO_CHARGES

@<TRIPOS>ATOM
      1 O1          3.8420    4.9902   -3.0847 O.2       1 <0>        0.00000
      2 C1          2.9549    5.6432   -2.5541 C.2       1 <0>        0.00000
      3 O2          2.8924    6.9972   -2.5748 O.3       1 <0>        0.00000
      4 C2          1.7956    5.0562   -1.7944 C.3       1 <0>        0.00000
      5 C3          1.8361    3.5314   -1.7498 C.3       1 <0>        0.00000
      6 C4          0.6791    2.8743   -0.9884 C.3       1 <0>        0.00000
      7 C5          0.7534    1.3461   -0.9650 C.3       1 <0>        0.00000
      8 C6         -0.4244    0.7464   -0.1931 C.3       1 <0>        0.00000
      9 C7         -0.3529   -0.7815   -0.1679 C.3       1 <0>        0.00000
     10 C8         -1.5300   -1.3807    0.6036 C.3       1 <0>        0.00000
     11 C9         -1.4590   -2.9084    0.6290 C.3       1 <0>        0.00000
     12 C10        -2.6342   -3.5063    1.3992 C.3       1 <0>        0.00000
     13 C11        -2.5713   -5.0269    1.4294 C.3       1 <0>        0.00000
     14 O3         -3.6879   -5.5184    2.1578 O.3       1 <0>        0.00000
     15 C12        -3.7788   -6.8805    2.2779 C.2       1 <0>        0.00000
     16 O4         -2.9752   -7.6757    1.8065 O.2       1 <0>        0.00000
     17 S1         -5.1755   -7.4560    3.1866 S.3       1 <0>        0.00000
     18 H1          2.1067    7.3349   -2.0942 H         1 <0>        0.00000
     19 H2          1.8153    5.4645   -0.7767 H         1 <0>        0.00000
     20 H3          0.8650    5.4184   -2.2439 H         1 <0>        0.00000
     21 H4          2.7848    3.2190   -1.2964 H         1 <0>        0.00000
     22 H5          1.8373    3.1387   -2.7743 H         1 <0>        0.00000
     23 H6         -0.2587    3.1796   -1.4695 H         1 <0>        0.00000
     24 H7          0.6401    3.2587    0.0377 H         1 <0>        0.00000
     25 H8          1.6892    1.0225   -0.4958 H         1 <0>        0.00000
     26 H9          0.7529    0.9617   -1.9921 H         1 <0>        0.00000
     27 H10        -0.4242    1.1311    0.8341 H         1 <0>        0.00000
     28 H11        -1.3668    1.0622   -0.6568 H         1 <0>        0.00000
     29 H12        -0.3529   -1.1663   -1.1950 H         1 <0>        0.00000
     30 H13         0.5895   -1.0974    0.2958 H         1 <0>        0.00000
     31 H14        -1.5303   -0.9959    1.6308 H         1 <0>        0.00000
     32 H15        -2.4723   -1.0642    0.1396 H         1 <0>        0.00000
     33 H16        -1.4590   -3.2934   -0.3980 H         1 <0>        0.00000
     34 H17        -0.5168   -3.2246    1.0929 H         1 <0>        0.00000
     35 H18        -3.5835   -3.1911    0.9483 H         1 <0>        0.00000
     36 H19        -2.6491   -3.1230    2.4272 H         1 <0>        0.00000
     37 H20        -2.6076   -5.4396    0.4161 H         1 <0>        0.00000
     38 H21        -1.6557   -5.3703    1.9216 H         1 <0>        0.00000
     39 H22        -5.6955   -6.2505    3.4599 H         1 <0>        0.00000
@<TRIPOS>BOND
     1    1    2 2
     2    2    3 1
     3    2    4 1
     4    4    5 1
     5    5    6 1
     6    6    7 1
     7    7    8 1
     8    8    9 1
     9    9   10 1
    10   10   11 1
    11   11   12 1
    12   12   13 1
    13   13   14 1
    14   14   15 1
    15   15   16 2
    16   15   17 1
    17    3   18 1
    18    4   19 1
    19    4   20 1
    20    5   21 1
    21    5   22 1
    22    6   23 1
    23    6   24 1
    24    7   25 1
    25    7   26 1
    26    8   27 1
    27    8   28 1
    28    9   29 1
    29    9   30 1
    30   10   31 1
    31   10   32 1
    32   11   33 1
    33   11   34 1
    34   12   35 1
    35   12   36 1
    36   13   37 1
    37   13   38 1
    38   17   39 1
@<TRIPOS>SUBSTRUCTURE
     1 <0>         1 GROUP 0 A     ****
@<TRIPOS>MOLECULE
MiniDrugBank_356
   40    43     1     0     0
SMALL
NO_CHARGES

@<TRIPOS>ATOM
      1 Cl1         8.8786    2.4360    4.7580 Cl        1 <0>        0.00000
      2 N1          4.0654   -0.3415    2.7174 N.pl3     1 <0>        0.00000
      3 N2          4.7029   -3.6267    1.3560 N.ar      1 <0>        0.00000
      4 N3          4.8241   -2.4808    2.0769 N.ar      1 <0>        0.00000
      5 N4          6.9137   -7.6924    0.6905 N.ar      1 <0>        0.00000
      6 C1          2.6674   -2.8069    0.3540 C.ar      1 <0>        0.00000
      7 C2          2.7925   -1.6242    1.0980 C.ar      1 <0>        0.00000
      8 C3          3.6512   -3.7752    0.5217 C.ar      1 <0>        0.00000
      9 C4          3.6159   -5.0712   -0.2199 C.3       1 <0>        0.00000
     10 C5          3.8904   -1.5140    1.9442 C.ar      1 <0>        0.00000
     11 C6          1.5761   -2.9684   -0.5160 C.ar      1 <0>        0.00000
     12 C7          4.7750   -5.9920    0.1003 C.ar      1 <0>        0.00000
     13 C8          1.8251   -0.6141    0.9652 C.ar      1 <0>        0.00000
     14 C9          0.6206   -1.9592   -0.6407 C.ar      1 <0>        0.00000
     15 C10         0.7448   -0.7843    0.0984 C.ar      1 <0>        0.00000
     16 C11         5.2110    0.3200    3.2032 C.ar      1 <0>        0.00000
     17 C12         4.6711   -6.9094    1.1400 C.ar      1 <0>        0.00000
     18 C13         5.9470   -5.9238   -0.6447 C.ar      1 <0>        0.00000
     19 C14         6.4094    0.2507    2.4930 C.ar      1 <0>        0.00000
     20 C15         5.1467    1.0437    4.3940 C.ar      1 <0>        0.00000
     21 C16         5.7589   -7.7296    1.3924 C.ar      1 <0>        0.00000
     22 C17         6.9778   -6.7879   -0.3123 C.ar      1 <0>        0.00000
     23 C18         7.5437    0.9050    2.9736 C.ar      1 <0>        0.00000
     24 C19         6.2810    1.6980    4.8745 C.ar      1 <0>        0.00000
     25 C20         7.4795    1.6287    4.1643 C.ar      1 <0>        0.00000
     26 H1          3.1929    0.1124    2.9730 H         1 <0>        0.00000
     27 H2          2.6698   -5.6029   -0.0200 H         1 <0>        0.00000
     28 H3          3.5913   -4.8913   -1.3084 H         1 <0>        0.00000
     29 H4          1.4499   -3.8723   -1.1068 H         1 <0>        0.00000
     30 H5          1.8889    0.3152    1.5258 H         1 <0>        0.00000
     31 H6         -0.2208   -2.0895   -1.3150 H         1 <0>        0.00000
     32 H7         -0.0008   -0.0006   -0.0004 H         1 <0>        0.00000
     33 H8          3.7702   -6.9881    1.7392 H         1 <0>        0.00000
     34 H9          6.0584   -5.2188   -1.4613 H         1 <0>        0.00000
     35 H10         6.4705   -0.3105    1.5642 H         1 <0>        0.00000
     36 H11         4.2178    1.1044    4.9552 H         1 <0>        0.00000
     37 H12         5.7279   -8.4629    2.1916 H         1 <0>        0.00000
     38 H13         7.9126   -6.7743   -0.8628 H         1 <0>        0.00000
     39 H14         8.4718    0.8424    2.4111 H         1 <0>        0.00000
     40 H15         6.2158    2.2571    5.8045 H         1 <0>        0.00000
@<TRIPOS>BOND
     1    1   25 1
     2    2   10 1
     3    2   16 1
     4    3    4 ar
     5    3    8 ar
     6    4   10 ar
     7    5   21 ar
     8    5   22 ar
     9    6    7 ar
    10    6    8 ar
    11    6   11 ar
    12    7   10 ar
    13    7   13 ar
    14    8    9 1
    15    9   12 1
    16   11   14 ar
    17   12   17 ar
    18   12   18 ar
    19   13   15 ar
    20   14   15 ar
    21   16   19 ar
    22   16   20 ar
    23   17   21 ar
    24   18   22 ar
    25   19   23 ar
    26   20   24 ar
    27   23   25 ar
    28   24   25 ar
    29    2   26 1
    30    9   27 1
    31    9   28 1
    32   11   29 1
    33   13   30 1
    34   14   31 1
    35   15   32 1
    36   17   33 1
    37   18   34 1
    38   19   35 1
    39   20   36 1
    40   21   37 1
    41   22   38 1
    42   23   39 1
    43   24   40 1
@<TRIPOS>SUBSTRUCTURE
     1 <0>         1 GROUP 0 A     ****
@<TRIPOS>MOLECULE
MiniDrugBank_357
   42    43     1     0     0
SMALL
NO_CHARGES

@<TRIPOS>ATOM
      1 C1          0.7931   -1.0309    0.4487 C.3       1 <0>        0.00000
      2 N1         -0.3954   -1.5841   -0.2246 N.2       1 <0>        0.00000
      3 C2         -1.3106   -0.7701   -0.6701 C.2       1 <0>        0.00000
      4 N2         -1.2523    0.6123   -0.5549 N.2       1 <0>        0.00000
      5 C3         -0.2331    1.1607    0.0551 C.2       1 <0>        0.00000
      6 N3          0.7806    0.4070    0.5821 N.pl3     1 <0>        0.00000
      7 O1          1.8609    1.0317    1.1742 O.3       1 <0>        0.00000
      8 C4          1.6573    1.1408    2.5994 C.3       1 <0>        0.00000
      9 C5          2.5716    2.2267    3.1214 C.3       1 <0>        0.00000
     10 C6          2.4143    2.4023    4.6237 C.3       1 <0>        0.00000
     11 O2          3.2848    3.4276    5.0832 O.3       1 <0>        0.00000
     12 C7          2.8737    4.1431    6.1775 C.ar      1 <0>        0.00000
     13 C8          2.6851    5.5235    6.1102 C.ar      1 <0>        0.00000
     14 C9          2.2660    6.2261    7.2400 C.ar      1 <0>        0.00000
     15 C10         2.0356    5.5482    8.4371 C.ar      1 <0>        0.00000
     16 C11         2.2242    4.1678    8.5045 C.ar      1 <0>        0.00000
     17 C12         2.6432    3.4652    7.3747 C.ar      1 <0>        0.00000
     18 C13         2.0090   -1.4589   -0.3818 C.3       1 <0>        0.00000
     19 C14         0.8522   -1.6765    1.8388 C.3       1 <0>        0.00000
     20 N4         -2.4164   -1.2907   -1.3001 N.pl3     1 <0>        0.00000
     21 N5         -0.1243    2.5203    0.2013 N.pl3     1 <0>        0.00000
     22 Cl1         2.9630    6.3868    4.6425 Cl        1 <0>        0.00000
     23 Cl2         1.5176    6.4740    9.8022 Cl        1 <0>        0.00000
     24 Cl3         1.9554    3.2715    9.9580 Cl        1 <0>        0.00000
     25 H1          1.8887    0.1720    3.0361 H         1 <0>        0.00000
     26 H2          0.6092    1.3819    2.7607 H         1 <0>        0.00000
     27 H3          3.6172    1.9985    2.8779 H         1 <0>        0.00000
     28 H4          2.3699    3.1755    2.6080 H         1 <0>        0.00000
     29 H5          2.6717    1.4797    5.1530 H         1 <0>        0.00000
     30 H6          1.3875    2.6748    4.8879 H         1 <0>        0.00000
     31 H7          2.1195    7.3028    7.1854 H         1 <0>        0.00000
     32 H8          2.7933    2.3887    7.4163 H         1 <0>        0.00000
     33 H9          2.9156   -1.0730    0.0765 H         1 <0>        0.00000
     34 H10         1.9172   -1.0637   -1.3899 H         1 <0>        0.00000
     35 H11         2.0576   -2.5438   -0.4217 H         1 <0>        0.00000
     36 H12         1.7167   -1.2985    2.3776 H         1 <0>        0.00000
     37 H13         0.9342   -2.7549    1.7344 H         1 <0>        0.00000
     38 H14        -0.0522   -1.4339    2.3899 H         1 <0>        0.00000
     39 H15        -3.1039   -0.6587   -1.6336 H         1 <0>        0.00000
     40 H16        -2.4793   -2.2759   -1.3942 H         1 <0>        0.00000
     41 H17        -0.8462    3.0919   -0.1708 H         1 <0>        0.00000
     42 H18         0.6720    2.8799    0.6735 H         1 <0>        0.00000
@<TRIPOS>BOND
     1    1    2 1
     2    1    6 1
     3    1   18 1
     4    1   19 1
     5    2    3 2
     6    3    4 1
     7    3   20 1
     8    4    5 2
     9    5    6 1
    10    5   21 1
    11    6    7 1
    12    7    8 1
    13    8    9 1
    14    9   10 1
    15   10   11 1
    16   11   12 1
    17   12   13 ar
    18   12   17 ar
    19   13   14 ar
    20   13   22 1
    21   14   15 ar
    22   15   16 ar
    23   15   23 1
    24   16   17 ar
    25   16   24 1
    26    8   25 1
    27    8   26 1
    28    9   27 1
    29    9   28 1
    30   10   29 1
    31   10   30 1
    32   14   31 1
    33   17   32 1
    34   18   33 1
    35   18   34 1
    36   18   35 1
    37   19   36 1
    38   19   37 1
    39   19   38 1
    40   20   39 1
    41   20   40 1
    42   21   41 1
    43   21   42 1
@<TRIPOS>SUBSTRUCTURE
     1 <0>         1 GROUP 0 A     ****
@<TRIPOS>MOLECULE
MiniDrugBank_358
   61    60     1     0     0
SMALL
NO_CHARGES

@<TRIPOS>ATOM
      1 C1          5.7713    4.1121    1.0166 C.3       1 <0>        0.00000
      2 C2          4.2828    4.3239    0.7912 C.3       1 <0>        0.00000
      3 C3          3.6383    3.2635   -0.1035 C.3       1 <0>        0.00000
      4 C4          2.1376    3.4282   -0.3645 C.3       1 <0>        0.00000
      5 C5          1.2874    3.3946    0.9064 C.3       1 <0>        0.00000
      6 C6          1.4517    2.0916    1.6328 C.2       1 <0>        0.00000
      7 C7          1.9039    1.9028    2.8819 C.2       1 <0>        0.00000
      8 C8          2.0693    0.5995    3.6114 C.3       1 <0>        0.00000
      9 C9          3.4974    0.3711    4.0160 C.2       1 <0>        0.00000
     10 C10         3.9849    0.2099    5.2562 C.2       1 <0>        0.00000
     11 C11         5.4117   -0.0185    5.6628 C.3       1 <0>        0.00000
     12 C12         5.9004    1.0704    6.5710 C.2       1 <0>        0.00000
     13 C13         6.9411    1.8656    6.2823 C.2       1 <0>        0.00000
     14 C14         7.4324    2.9553    7.1879 C.3       1 <0>        0.00000
     15 C15         7.3576    4.2911    6.5082 C.2       1 <0>        0.00000
     16 C16         6.6270    5.3142    6.9759 C.2       1 <0>        0.00000
     17 C17         6.5382    6.6575    6.3123 C.3       1 <0>        0.00000
     18 C18         5.1012    7.0098    5.9116 C.3       1 <0>        0.00000
     19 C19         4.4982    6.0011    4.9283 C.3       1 <0>        0.00000
     20 C20         3.0711    6.3631    4.5389 C.3       1 <0>        0.00000
     21 P1          2.9412    7.9808    3.7429 P.3       1 <0>        0.00000
     22 F1          2.9563    9.1377    4.7930 F         1 <0>        0.00000
     23 O1          3.9962    8.1883    2.7080 O.2       1 <0>        0.00000
     24 O2          1.4375    8.0056    3.1596 O.3       1 <0>        0.00000
     25 C21         0.3331    7.8743    4.0370 C.3       1 <0>        0.00000
     26 H1          6.1950    4.8889    1.6599 H         1 <0>        0.00000
     27 H2          6.3042    4.1483    0.0609 H         1 <0>        0.00000
     28 H3          5.9644    3.1375    1.4758 H         1 <0>        0.00000
     29 H4          3.7671    4.3670    1.7559 H         1 <0>        0.00000
     30 H5          4.1368    5.3046    0.3223 H         1 <0>        0.00000
     31 H6          4.1661    3.2569   -1.0655 H         1 <0>        0.00000
     32 H7          3.8034    2.2749    0.3433 H         1 <0>        0.00000
     33 H8          1.9900    4.3868   -0.8793 H         1 <0>        0.00000
     34 H9          1.7943    2.6535   -1.0611 H         1 <0>        0.00000
     35 H10         1.5362    4.2371    1.5567 H         1 <0>        0.00000
     36 H11         0.2279    3.5115    0.6488 H         1 <0>        0.00000
     37 H12         1.1524    1.2064    1.0736 H         1 <0>        0.00000
     38 H13         2.1527    2.7956    3.4546 H         1 <0>        0.00000
     39 H14         1.6688   -0.2324    3.0285 H         1 <0>        0.00000
     40 H15         1.4612    0.6465    4.5232 H         1 <0>        0.00000
     41 H16         4.2203    0.3450    3.2009 H         1 <0>        0.00000
     42 H17         3.2647    0.2269    6.0736 H         1 <0>        0.00000
     43 H18         6.0681   -0.1304    4.7941 H         1 <0>        0.00000
     44 H19         5.4685   -0.9727    6.2008 H         1 <0>        0.00000
     45 H20         5.3608    1.2167    7.5041 H         1 <0>        0.00000
     46 H21         7.4587    1.7408    5.3352 H         1 <0>        0.00000
     47 H22         6.8645    2.9635    8.1267 H         1 <0>        0.00000
     48 H23         8.4734    2.7504    7.4635 H         1 <0>        0.00000
     49 H24         7.9100    4.4075    5.5788 H         1 <0>        0.00000
     50 H25         6.0394    5.1796    7.8809 H         1 <0>        0.00000
     51 H26         7.1932    6.7112    5.4345 H         1 <0>        0.00000
     52 H27         6.9033    7.4095    7.0221 H         1 <0>        0.00000
     53 H28         5.1042    8.0023    5.4443 H         1 <0>        0.00000
     54 H29         4.4753    7.0858    6.8087 H         1 <0>        0.00000
     55 H30         4.5003    4.9962    5.3644 H         1 <0>        0.00000
     56 H31         5.1174    5.9708    4.0243 H         1 <0>        0.00000
     57 H32         2.6442    5.6050    3.8744 H         1 <0>        0.00000
     58 H33         2.4483    6.3985    5.4388 H         1 <0>        0.00000
     59 H34        -0.5953    7.9141    3.4626 H         1 <0>        0.00000
     60 H35         0.3544    8.6816    4.7730 H         1 <0>        0.00000
     61 H36         0.4007    6.9128    4.5509 H         1 <0>        0.00000
@<TRIPOS>BOND
     1    1    2 1
     2    2    3 1
     3    3    4 1
     4    4    5 1
     5    5    6 1
     6    6    7 2
     7    7    8 1
     8    8    9 1
     9    9   10 2
    10   10   11 1
    11   11   12 1
    12   12   13 2
    13   13   14 1
    14   14   15 1
    15   15   16 2
    16   16   17 1
    17   17   18 1
    18   18   19 1
    19   19   20 1
    20   20   21 1
    21   21   22 1
    22   21   23 2
    23   21   24 1
    24   24   25 1
    25    1   26 1
    26    1   27 1
    27    1   28 1
    28    2   29 1
    29    2   30 1
    30    3   31 1
    31    3   32 1
    32    4   33 1
    33    4   34 1
    34    5   35 1
    35    5   36 1
    36    6   37 1
    37    7   38 1
    38    8   39 1
    39    8   40 1
    40    9   41 1
    41   10   42 1
    42   11   43 1
    43   11   44 1
    44   12   45 1
    45   13   46 1
    46   14   47 1
    47   14   48 1
    48   15   49 1
    49   16   50 1
    50   17   51 1
    51   17   52 1
    52   18   53 1
    53   18   54 1
    54   19   55 1
    55   19   56 1
    56   20   57 1
    57   20   58 1
    58   25   59 1
    59   25   60 1
    60   25   61 1
@<TRIPOS>SUBSTRUCTURE
     1 <0>         1 GROUP 0 A     ****
@<TRIPOS>MOLECULE
MiniDrugBank_359
   40    41     1     0     0
SMALL
NO_CHARGES

@<TRIPOS>ATOM
      1 O1          0.6080   -1.1964    2.7920 O.2       1 <0>        0.00000
      2 N1          1.7571    0.5962    1.8596 N.am      1 <0>        0.00000
      3 N2         -3.4138   -0.1800    0.9337 N.3       1 <0>        0.00000
      4 C1          0.3300   -0.8609    0.4633 C.3       1 <0>        0.00000
      5 C2         -1.1880   -0.8577    0.2860 C.3       1 <0>        0.00000
      6 C3         -0.3747    0.2526   -0.3038 C.3       1 <0>        0.00000
      7 C4         -2.1206   -0.5784    1.4160 C.3       1 <0>        0.00000
      8 C5          1.1095   -1.8549   -0.3267 C.ar      1 <0>        0.00000
      9 C6          0.9063   -0.5088    1.8118 C.2       1 <0>        0.00000
     10 C7          1.5812   -1.5215   -1.5963 C.ar      1 <0>        0.00000
     11 C8          1.3680   -3.1189    0.2037 C.ar      1 <0>        0.00000
     12 C9          1.8797    1.4347    3.0452 C.3       1 <0>        0.00000
     13 C10         2.5868    0.9931    0.7249 C.3       1 <0>        0.00000
     14 C11         2.3113   -2.4520   -2.3356 C.ar      1 <0>        0.00000
     15 C12         2.0981   -4.0494   -0.5357 C.ar      1 <0>        0.00000
     16 C13         2.5697   -3.7160   -1.8053 C.ar      1 <0>        0.00000
     17 C14         0.8956    2.5440    2.9986 C.3       1 <0>        0.00000
     18 C15         3.9064    0.3212    0.7931 C.3       1 <0>        0.00000
     19 H1         -4.0794   -0.8886    0.6670 H         1 <0>        0.00000
     20 H2         -3.5679    0.7824    0.6763 H         1 <0>        0.00000
     21 H3         -1.6188   -1.5780   -0.4019 H         1 <0>        0.00000
     22 H4         -0.4332    1.2350    0.1518 H         1 <0>        0.00000
     23 H5         -0.2779    0.2832   -1.3834 H         1 <0>        0.00000
     24 H6         -1.7329    0.2313    2.0411 H         1 <0>        0.00000
     25 H7         -2.2556   -1.4693    2.0360 H         1 <0>        0.00000
     26 H8          1.3846   -0.5396   -2.0187 H         1 <0>        0.00000
     27 H9          1.0051   -3.3882    1.1922 H         1 <0>        0.00000
     28 H10         1.7100    0.7892    3.9045 H         1 <0>        0.00000
     29 H11         2.9024    1.8055    3.0616 H         1 <0>        0.00000
     30 H12         2.0409    0.7108   -0.1719 H         1 <0>        0.00000
     31 H13         2.6812    2.0748    0.7740 H         1 <0>        0.00000
     32 H14         2.6787   -2.1935   -3.3246 H         1 <0>        0.00000
     33 H15         2.2997   -5.0336   -0.1232 H         1 <0>        0.00000
     34 H16         3.1378   -4.4406   -2.3810 H         1 <0>        0.00000
     35 H17         0.9760    3.1836    3.8842 H         1 <0>        0.00000
     36 H18         1.0285    3.1547    2.0989 H         1 <0>        0.00000
     37 H19        -0.1169    2.1236    2.9761 H         1 <0>        0.00000
     38 H20         4.5430    0.6074   -0.0512 H         1 <0>        0.00000
     39 H21         4.4235    0.5542    1.7303 H         1 <0>        0.00000
     40 H22         3.7558   -0.7641    0.7501 H         1 <0>        0.00000
@<TRIPOS>BOND
     1    1    9 2
     2    2    9 am
     3    2   12 1
     4    2   13 1
     5    3    7 1
     6    4    5 1
     7    4    6 1
     8    4    8 1
     9    4    9 1
    10    5    6 1
    11    5    7 1
    12    8   10 ar
    13    8   11 ar
    14   10   14 ar
    15   11   15 ar
    16   12   17 1
    17   13   18 1
    18   14   16 ar
    19   15   16 ar
    20    3   19 1
    21    3   20 1
    22    5   21 1
    23    6   22 1
    24    6   23 1
    25    7   24 1
    26    7   25 1
    27   10   26 1
    28   11   27 1
    29   12   28 1
    30   12   29 1
    31   13   30 1
    32   13   31 1
    33   14   32 1
    34   15   33 1
    35   16   34 1
    36   17   35 1
    37   17   36 1
    38   17   37 1
    39   18   38 1
    40   18   39 1
    41   18   40 1
@<TRIPOS>SUBSTRUCTURE
     1 <0>         1 GROUP 0 A     ****
@<TRIPOS>MOLECULE
MiniDrugBank_360
   49    52     1     0     0
SMALL
NO_CHARGES

@<TRIPOS>ATOM
      1 F1          2.6511   -1.0410   -3.7903 F         1 <0>        0.00000
      2 C1          1.3413   -0.8302   -3.6003 C.ar      1 <0>        0.00000
      3 C2          0.4732   -1.0779   -4.6643 C.ar      1 <0>        0.00000
      4 C3         -0.8932   -0.8699   -4.5120 C.ar      1 <0>        0.00000
      5 C4         -1.3940   -0.4229   -3.2902 C.ar      1 <0>        0.00000
      6 C5         -0.5382   -0.1838   -2.2048 C.ar      1 <0>        0.00000
      7 C6          0.8400   -0.3749   -2.3731 C.ar      1 <0>        0.00000
      8 C7          1.7368   -0.0586   -1.2186 C.2       1 <0>        0.00000
      9 N1          1.2607    0.2536   -0.0523 N.2       1 <0>        0.00000
     10 N2          3.1009   -0.0849   -1.3970 N.pl3     1 <0>        0.00000
     11 N3         -1.0566    0.2567   -1.0015 N.pl3     1 <0>        0.00000
     12 C8         -0.1934    0.2764    0.1683 C.3       1 <0>        0.00000
     13 C9         -0.5122    1.5736    0.9506 C.3       1 <0>        0.00000
     14 C10         0.0969    1.5837    2.3525 C.3       1 <0>        0.00000
     15 N4         -0.2895    0.3876    3.0979 N.am      1 <0>        0.00000
     16 C11         0.0527   -0.8818    2.4464 C.3       1 <0>        0.00000
     17 C12        -0.5530   -0.9500    1.0428 C.3       1 <0>        0.00000
     18 C13        -0.9406    0.5209    4.3266 C.2       1 <0>        0.00000
     19 O1         -1.2361    1.5833    4.8715 O.2       1 <0>        0.00000
     20 C14        -0.4198   -1.2732    5.9576 C.ar      1 <0>        0.00000
     21 N5         -2.0025   -5.4540    6.4394 N.3       1 <0>        0.00000
     22 C15        -2.3926   -4.2696    7.1539 C.3       1 <0>        0.00000
     23 C16        -2.0164   -3.0262    6.4210 C.ar      1 <0>        0.00000
     24 C17        -2.9075   -2.4549    5.5126 C.ar      1 <0>        0.00000
     25 C18        -2.5547   -1.2926    4.8267 C.ar      1 <0>        0.00000
     26 C19        -0.7726   -2.4354    6.6435 C.ar      1 <0>        0.00000
     27 C20        -1.3110   -0.7018    5.0493 C.ar      1 <0>        0.00000
     28 H1          0.8665   -1.4296   -5.6136 H         1 <0>        0.00000
     29 H2         -1.5689   -1.0571   -5.3412 H         1 <0>        0.00000
     30 H3         -2.4660   -0.2683   -3.1862 H         1 <0>        0.00000
     31 H4          3.6773    0.1279   -0.6187 H         1 <0>        0.00000
     32 H5          3.4495   -0.3155   -2.2962 H         1 <0>        0.00000
     33 H6         -2.0601    0.3403   -0.8905 H         1 <0>        0.00000
     34 H7         -0.1551    2.4495    0.3940 H         1 <0>        0.00000
     35 H8         -1.6012    1.6867    1.0464 H         1 <0>        0.00000
     36 H9          1.1918    1.6050    2.3059 H         1 <0>        0.00000
     37 H10        -0.2211    2.4870    2.8836 H         1 <0>        0.00000
     38 H11         1.1464   -0.9414    2.4023 H         1 <0>        0.00000
     39 H12        -0.2912   -1.7393    3.0303 H         1 <0>        0.00000
     40 H13        -1.6453   -1.0198    1.1417 H         1 <0>        0.00000
     41 H14        -0.2250   -1.8760    0.5534 H         1 <0>        0.00000
     42 H15         0.5517   -0.8207    6.1382 H         1 <0>        0.00000
     43 H16        -1.0577   -5.7938    6.5287 H         1 <0>        0.00000
     44 H17        -2.6018   -5.8088    5.7106 H         1 <0>        0.00000
     45 H18        -1.9141   -4.2970    8.1389 H         1 <0>        0.00000
     46 H19        -3.4745   -4.3178    7.3164 H         1 <0>        0.00000
     47 H20        -3.8785   -2.9088    5.3327 H         1 <0>        0.00000
     48 H21        -3.2571   -0.8562    4.1214 H         1 <0>        0.00000
     49 H22        -0.0721   -2.8739    7.3492 H         1 <0>        0.00000
@<TRIPOS>BOND
     1    1    2 1
     2    2    3 ar
     3    2    7 ar
     4    3    4 ar
     5    4    5 ar
     6    5    6 ar
     7    6    7 ar
     8    6   11 1
     9    7    8 1
    10    8    9 2
    11    8   10 1
    12    9   12 1
    13   11   12 1
    14   12   13 1
    15   12   17 1
    16   13   14 1
    17   14   15 1
    18   15   16 1
    19   15   18 am
    20   16   17 1
    21   18   19 2
    22   18   27 1
    23   20   26 ar
    24   20   27 ar
    25   21   22 1
    26   22   23 1
    27   23   24 ar
    28   23   26 ar
    29   24   25 ar
    30   25   27 ar
    31    3   28 1
    32    4   29 1
    33    5   30 1
    34   10   31 1
    35   10   32 1
    36   11   33 1
    37   13   34 1
    38   13   35 1
    39   14   36 1
    40   14   37 1
    41   16   38 1
    42   16   39 1
    43   17   40 1
    44   17   41 1
    45   20   42 1
    46   21   43 1
    47   21   44 1
    48   22   45 1
    49   22   46 1
    50   24   47 1
    51   25   48 1
    52   26   49 1
@<TRIPOS>SUBSTRUCTURE
     1 <0>         1 GROUP 0 A     ****
@<TRIPOS>MOLECULE
MiniDrugBank_361
   58    62     1     0     0
SMALL
NO_CHARGES

@<TRIPOS>ATOM
      1 N1         -4.4910    6.2940   -2.7229 N.am      1 <0>        0.00000
      2 C1         -4.1202    7.5055   -3.1936 C.2       1 <0>        0.00000
      3 C2         -5.5838    8.0112   -3.0405 C.3       1 <0>        0.00000
      4 C3         -5.8441    6.6567   -2.3365 C.3       1 <0>        0.00000
      5 C4         -8.8850    8.2033   -6.2812 C.ar      1 <0>        0.00000
      6 N2         -9.3586    7.2409   -5.4056 N.ar      1 <0>        0.00000
      7 C5         -3.9634    5.0497   -2.5707 C.2       1 <0>        0.00000
      8 C6         -4.7505    3.9793   -2.3030 C.2       1 <0>        0.00000
      9 C7         -2.5787    1.1322   -1.0326 C.2       1 <0>        0.00000
     10 C8         -7.8537    9.1751   -5.8272 C.2       1 <0>        0.00000
     11 N3         -1.5586    1.3643   -0.1208 N.am      1 <0>        0.00000
     12 N4         -6.2564    8.2621   -4.3084 N.am      1 <0>        0.00000
     13 N5         -9.3425    8.2731   -7.5312 N.ar      1 <0>        0.00000
     14 C9         -7.3452    9.0870   -4.4120 C.2       1 <0>        0.00000
     15 C10        -3.1524    2.4707   -1.3298 C.2       1 <0>        0.00000
     16 S1         -6.9960    5.4876   -3.0966 S.3       1 <0>        0.00000
     17 C11       -10.2490    6.5229   -6.0543 C.ar      1 <0>        0.00000
     18 C12        -4.2570    2.6364   -2.0600 C.2       1 <0>        0.00000
     19 S2        -10.4681    7.0430   -7.6749 S.3       1 <0>        0.00000
     20 C13        -2.5064    4.9278   -2.7527 C.2       1 <0>        0.00000
     21 C14        -6.2743    4.0459   -2.2411 C.3       1 <0>        0.00000
     22 C15        -1.4722    2.7436    0.3103 C.3       1 <0>        0.00000
     23 N6         -7.3918   10.0816   -6.6345 N.2       1 <0>        0.00000
     24 O1         -3.0857    7.9614   -3.6223 O.2       1 <0>        0.00000
     25 C16        -2.3271    3.5300   -0.6721 C.3       1 <0>        0.00000
     26 O2         -2.9548    0.0772   -1.5142 O.2       1 <0>        0.00000
     27 C17        -0.7501    0.3445    0.4870 C.3       1 <0>        0.00000
     28 O3         -7.9272    9.7252   -3.5495 O.2       1 <0>        0.00000
     29 N7         -0.7650   -1.8845    1.1822 N.3       1 <0>        0.00000
     30 O4         -1.9520    3.9304   -3.1639 O.2       1 <0>        0.00000
     31 N8        -10.9504    5.4755   -5.5536 N.pl3     1 <0>        0.00000
     32 O5         -1.9157    6.0833   -2.3930 O.3       1 <0>        0.00000
     33 O6         -6.4299   10.8852   -6.0166 O.3       1 <0>        0.00000
     34 C18         0.0280   -0.4810   -0.5366 C.3       1 <0>        0.00000
     35 C19        -1.5772   -0.6728    1.2598 C.3       1 <0>        0.00000
     36 C20        -0.2919   -1.9306   -0.1993 C.3       1 <0>        0.00000
     37 H1         -5.9570    6.7532   -1.2494 H         1 <0>        0.00000
     38 H2         -5.6655    8.8750   -2.3714 H         1 <0>        0.00000
     39 H3         -0.0482    0.8569    1.1547 H         1 <0>        0.00000
     40 H4         -5.8818    7.8038   -5.1265 H         1 <0>        0.00000
     41 H5         -4.7950    1.7895   -2.4766 H         1 <0>        0.00000
     42 H6         -6.7169    3.1646   -2.7188 H         1 <0>        0.00000
     43 H7         -6.5994    4.0574   -1.1944 H         1 <0>        0.00000
     44 H8         -0.4222    3.0527    0.2656 H         1 <0>        0.00000
     45 H9         -1.8348    2.8409    1.3383 H         1 <0>        0.00000
     46 H10        -2.9791    4.2268   -0.1336 H         1 <0>        0.00000
     47 H11        -1.7112    4.0964   -1.3768 H         1 <0>        0.00000
     48 H12        -1.3682   -2.6918    1.3463 H         1 <0>        0.00000
     49 H13       -10.7945    5.1250   -4.6005 H         1 <0>        0.00000
     50 H14       -11.5978    4.9296   -6.1353 H         1 <0>        0.00000
     51 H15        -0.9416    6.0402   -2.5006 H         1 <0>        0.00000
     52 H16        -6.1930   11.4943   -6.7363 H         1 <0>        0.00000
     53 H17        -0.2368   -0.2515   -1.5750 H         1 <0>        0.00000
     54 H18         1.1012   -0.2888   -0.4157 H         1 <0>        0.00000
     55 H19        -2.5595   -0.8469    0.8017 H         1 <0>        0.00000
     56 H20        -1.7456   -0.3625    2.2968 H         1 <0>        0.00000
     57 H21        -1.0852   -2.3135   -0.8516 H         1 <0>        0.00000
     58 H22         0.5798   -2.5826   -0.3101 H         1 <0>        0.00000
@<TRIPOS>BOND
     1    1    2 am
     2    3    4 1
     3    1    4 1
     4    5   10 1
     5    5    6 1
     6    1    7 1
     7    7    8 2
     8    9   15 1
     9   10   14 1
    10    9   11 am
    11    3   12 1
    12    5   13 2
    13   12   14 am
    14   15   18 2
    15    4   16 1
    16    6   17 2
    17    8   18 1
    18   13   19 1
    19    7   20 1
    20    8   21 1
    21   22   25 1
    22   10   23 2
    23    2   24 2
    24   15   25 1
    25    9   26 2
    26   11   27 1
    27   14   28 2
    28   29   35 1
    29   20   30 2
    30   17   31 1
    31   20   32 1
    32   23   33 1
    33   27   34 1
    34   27   35 1
    35   34   36 1
    36    4   37 1
    37    2    3 1
    38   16   21 1
    39   11   22 1
    40   17   19 1
    41   29   36 1
    42    3   38 1
    43   27   39 1
    44   12   40 1
    45   18   41 1
    46   21   42 1
    47   21   43 1
    48   22   44 1
    49   22   45 1
    50   25   46 1
    51   25   47 1
    52   29   48 1
    53   31   49 1
    54   31   50 1
    55   32   51 1
    56   33   52 1
    57   34   53 1
    58   34   54 1
    59   35   55 1
    60   35   56 1
    61   36   57 1
    62   36   58 1
@<TRIPOS>SUBSTRUCTURE
     1 <0>         1 GROUP 0 A     ****
@<TRIPOS>MOLECULE
MiniDrugBank_362
   40    40     1     0     0
SMALL
NO_CHARGES

@<TRIPOS>ATOM
      1 C1         -3.5627   -1.6055   -0.6662 C.3       1 <0>        0.00000
      2 C2         -2.7936   -1.3798   -1.9703 C.3       1 <0>        0.00000
      3 C3         -3.7548   -1.4462   -3.1578 C.3       1 <0>        0.00000
      4 C4         -2.0563   -0.0355   -1.9644 C.3       1 <0>        0.00000
      5 C5         -1.0770    0.0298   -0.8478 C.2       1 <0>        0.00000
      6 N1         -1.3303    0.4693    0.3453 N.2       1 <0>        0.00000
      7 C6         -0.0524    0.3381    1.1046 C.3       1 <0>        0.00000
      8 O1         -0.1320   -0.5057    2.2543 O.3       1 <0>        0.00000
      9 C7          0.3398    1.7453    1.5628 C.3       1 <0>        0.00000
     10 N2         -0.7038    2.2820    2.4040 N.3       1 <0>        0.00000
     11 C8          0.6595    2.6738    0.3792 C.3       1 <0>        0.00000
     12 C9          1.0511    4.0776    0.8270 C.3       1 <0>        0.00000
     13 O2         -0.4549    2.7888   -0.5020 O.3       1 <0>        0.00000
     14 N3          0.9120   -0.2209    0.1716 N.am      1 <0>        0.00000
     15 C10         2.2940   -0.5113    0.5038 C.3       1 <0>        0.00000
     16 C11         2.3565   -1.9180    1.0108 C.2       1 <0>        0.00000
     17 O3          3.4125   -2.4336    1.3684 O.2       1 <0>        0.00000
     18 C12         0.3345   -0.4297   -1.0479 C.2       1 <0>        0.00000
     19 O4          0.7507   -0.8677   -2.0967 O.2       1 <0>        0.00000
     20 H1         -2.8867   -1.5608    0.1945 H         1 <0>        0.00000
     21 H2         -4.0539   -2.5846   -0.6587 H         1 <0>        0.00000
     22 H3         -4.3311   -0.8394   -0.5213 H         1 <0>        0.00000
     23 H4         -2.0624   -2.1915   -2.0770 H         1 <0>        0.00000
     24 H5         -3.2204   -1.2865   -4.1003 H         1 <0>        0.00000
     25 H6         -4.2396   -2.4267   -3.2122 H         1 <0>        0.00000
     26 H7         -4.5381   -0.6844   -3.0787 H         1 <0>        0.00000
     27 H8         -1.4910    0.0930   -2.8940 H         1 <0>        0.00000
     28 H9         -2.7553    0.8017   -1.8666 H         1 <0>        0.00000
     29 H10        -0.3929   -1.3816    1.9326 H         1 <0>        0.00000
     30 H11         1.2303    1.6605    2.1949 H         1 <0>        0.00000
     31 H12        -0.7159    2.0374    3.3785 H         1 <0>        0.00000
     32 H13        -1.5014    2.7143    1.9719 H         1 <0>        0.00000
     33 H14         1.4920    2.2553   -0.1994 H         1 <0>        0.00000
     34 H15         1.2751    4.7243   -0.0281 H         1 <0>        0.00000
     35 H16         0.2183    4.5495    1.3600 H         1 <0>        0.00000
     36 H17         1.9197    4.0557    1.4921 H         1 <0>        0.00000
     37 H18        -0.1811    3.3840   -1.2170 H         1 <0>        0.00000
     38 H19         2.6123    0.1965    1.2636 H         1 <0>        0.00000
     39 H20         2.8696   -0.4172   -0.4132 H         1 <0>        0.00000
     40 H21         1.4293   -2.5158    0.9801 H         1 <0>        0.00000
@<TRIPOS>BOND
     1    1    2 1
     2    2    3 1
     3    2    4 1
     4    4    5 1
     5    5    6 2
     6    6    7 1
     7    7    8 1
     8    7    9 1
     9    9   10 1
    10    9   11 1
    11   11   12 1
    12   11   13 1
    13    7   14 1
    14   14   15 1
    15   15   16 1
    16   16   17 2
    17   14   18 am
    18    5   18 1
    19   18   19 2
    20    1   20 1
    21    1   21 1
    22    1   22 1
    23    2   23 1
    24    3   24 1
    25    3   25 1
    26    3   26 1
    27    4   27 1
    28    4   28 1
    29    8   29 1
    30    9   30 1
    31   10   31 1
    32   10   32 1
    33   11   33 1
    34   12   34 1
    35   12   35 1
    36   12   36 1
    37   13   37 1
    38   15   38 1
    39   15   39 1
    40   16   40 1
@<TRIPOS>SUBSTRUCTURE
     1 <0>         1 GROUP 0 A     ****
