@<TRIPOS>MOLECULE
S98
   34    37     1     0     0
SMALL
NO_CHARGES

@<TRIPOS>ATOM
      1 N1          0.2769   -0.9145    0.0000 N.pl3     1 <0>        0.00000
      2 C1         -0.5077   -0.6596    0.0000 C.ar      1 <0>        0.00000
      3 C2         -0.5077    0.1654    0.0000 C.ar      1 <0>        0.00000
      4 N2          0.2769    0.4204    0.0000 N.ar      1 <0>        0.00000
      5 C3          0.7618   -0.2471    0.0000 C.ar      1 <0>        0.00000
      6 N3          1.5868   -0.2471    0.0000 N.pl3     1 <0>        0.00000
      7 C4          1.9993    0.4674    0.0000 C.3       1 <0>        0.00000
      8 C5          2.8243    0.4674    0.0000 C.ar      1 <0>        0.00000
      9 C6         -1.2222    0.5779    0.0000 C.ar      1 <0>        0.00000
     10 C7         -1.9367    0.1654    0.0000 C.ar      1 <0>        0.00000
     11 C8         -1.9367   -0.6596    0.0000 C.ar      1 <0>        0.00000
     12 C9         -2.6512   -1.0721    0.0000 C.ar      1 <0>        0.00000
     13 O1         -2.6512   -1.8971    0.0000 O.2       1 <0>        0.00000
     14 N4         -3.3656   -0.6596    0.0000 N.am      1 <0>        0.00000
     15 C10        -3.3656    0.1654    0.0000 C.ar      1 <0>        0.00000
     16 N5         -4.0801    0.5779    0.0000 N.pl3     1 <0>        0.00000
     17 N6         -2.6512    0.5779    0.0000 N.ar      1 <0>        0.00000
     18 C11        -1.2222   -1.0721    0.0000 C.ar      1 <0>        0.00000
     19 C12         3.3092    1.1348    0.0000 C.ar      1 <0>        0.00000
     20 C13         4.0939    0.8799    0.0000 C.ar      1 <0>        0.00000
     21 C14         4.0939    0.0549    0.0000 C.ar      1 <0>        0.00000
     22 S1          3.3092   -0.2001    0.0000 S.3       1 <0>        0.00000
     23 H1          0.2769   -0.9145    0.0000 H         1 <0>        0.00000
     24 H2          1.5868   -0.2471    0.0000 H         1 <0>        0.00000
     25 H3          1.9993    0.4674    0.0000 H         1 <0>        0.00000
     26 H4          1.9993    0.4674    0.0000 H         1 <0>        0.00000
     27 H5         -1.2222    0.5779    0.0000 H         1 <0>        0.00000
     28 H6         -3.3656   -0.6596    0.0000 H         1 <0>        0.00000
     29 H7         -4.0801    0.5779    0.0000 H         1 <0>        0.00000
     30 H8         -4.0801    0.5779    0.0000 H         1 <0>        0.00000
     31 H9         -1.2222   -1.0721    0.0000 H         1 <0>        0.00000
     32 H10         3.3092    1.1348    0.0000 H         1 <0>        0.00000
     33 H11         4.0939    0.8799    0.0000 H         1 <0>        0.00000
     34 H12         4.0939    0.0549    0.0000 H         1 <0>        0.00000
@<TRIPOS>BOND
     1    1    2 1
     2    1    5 1
     3    2    3 ar
     4    2   18 ar
     5    3    4 1
     6    3    9 ar
     7    4    5 2
     8    5    6 1
     9    6    7 1
    10    7    8 1
    11    8   19 2
    12    8   22 1
    13    9   10 ar
    14   10   11 ar
    15   10   17 1
    16   11   12 1
    17   11   18 ar
    18   12   13 2
    19   12   14 am
    20   14   15 1
    21   15   16 1
    22   15   17 2
    23   19   20 1
    24   20   21 2
    25   21   22 1
    26    1   23 1
    27    6   24 1
    28    7   25 1
    29    7   26 1
    30    9   27 1
    31   14   28 1
    32   16   29 1
    33   16   30 1
    34   18   31 1
    35   19   32 1
    36   20   33 1
    37   21   34 1
@<TRIPOS>SUBSTRUCTURE
     1 <0>         1 GROUP 0 A     ****
@<TRIPOS>MOLECULE
1189
   12    11     1     0     0
SMALL
NO_CHARGES

@<TRIPOS>ATOM
      1 F1          3.0791    0.9760    0.0000 F         1 <0>        0.00000
      2 F2          1.6500   -0.6740    0.0000 F         1 <0>        0.00000
      3 F3          1.9520    0.4529    0.0000 F         1 <0>        0.00000
      4 F4          2.7770   -0.9760    0.0000 F         1 <0>        0.00000
      5 F5          5.2224   -0.2615    0.0000 F         1 <0>        0.00000
      6 F6          4.5080    0.9760    0.0000 F         1 <0>        0.00000
      7 O1          3.7935   -0.2615    0.0000 O.3       1 <0>        0.00000
      8 C1          3.0791    0.1510    0.0000 C.3       1 <0>        0.00000
      9 C2          2.3645   -0.2615    0.0000 C.3       1 <0>        0.00000
     10 C3          4.5080    0.1510    0.0000 C.3       1 <0>        0.00000
     11 H1          3.0791    0.1510    0.0000 H         1 <0>        0.00000
     12 H2          4.5080    0.1510    0.0000 H         1 <0>        0.00000
@<TRIPOS>BOND
     1    1    8 1
     2    2    9 1
     3    3    9 1
     4    4    9 1
     5    5   10 1
     6    6   10 1
     7    7    8 1
     8    7   10 1
     9    8    9 1
    10    8   11 1
    11   10   12 1
@<TRIPOS>SUBSTRUCTURE
     1 <0>         1 GROUP 0 A     ****
@<TRIPOS>MOLECULE
*****
   12    11     1     0     0
SMALL
NO_CHARGES

@<TRIPOS>ATOM
      1 O1         -0.6039   -1.6500    0.0000 O.3       1 <0>        0.00000
      2 P1          0.1105   -1.2375    0.0000 P.3       1 <0>        0.00000
      3 O2          0.5230   -1.9520    0.0000 O.3       1 <0>        0.00000
      4 O3         -0.3020   -0.5230    0.0000 O.2       1 <0>        0.00000
      5 O4          0.8250   -0.8250    0.0000 O.3       1 <0>        0.00000
      6 P2          0.8250    0.0000    0.0000 P.3       1 <0>        0.00000
      7 O5          0.8250    0.8250    0.0000 O.3       1 <0>        0.00000
      8 S1          1.6500    0.0000    0.0000 S.3       1 <0>        0.00000
      9 O6          0.0000    0.0000    0.0000 O.2       1 <0>        0.00000
     10 H1         -0.6039   -1.6500    0.0000 H         1 <0>        0.00000
     11 H2          0.5230   -1.9520    0.0000 H         1 <0>        0.00000
     12 H3          0.8250    0.8250    0.0000 H         1 <0>        0.00000
@<TRIPOS>BOND
     1    1    2 1
     2    2    3 1
     3    2    4 2
     4    2    5 1
     5    5    6 1
     6    6    7 1
     7    6    8 1
     8    6    9 2
     9    1   10 1
    10    3   11 1
    11    7   12 1
@<TRIPOS>SUBSTRUCTURE
     1 <0>         1 GROUP 0 A     ****
@<TRIPOS>MOLECULE
IN9
   37    38     1     0     0
SMALL
NO_CHARGES

@<TRIPOS>ATOM
      1 C1         -1.4386   -1.4419    0.0000 C.ar      1 <0>        0.00000
      2 C2         -1.7161   -2.7477    0.0000 C.ar      1 <0>        0.00000
      3 C3         -0.2011   -0.7275    0.0000 C.2       1 <0>        0.00000
      4 C4          1.4489    0.7015    0.0000 C.3       1 <0>        0.00000
      5 C5          1.4489    2.1304    0.0000 C.ar      1 <0>        0.00000
      6 C6          1.0364    1.4159    0.0000 C.ar      1 <0>        0.00000
      7 C7          0.2114    1.4159    0.0000 C.ar      1 <0>        0.00000
      8 C8         -0.2011    2.1304    0.0000 C.ar      1 <0>        0.00000
      9 C9          0.2114    2.8449    0.0000 C.ar      1 <0>        0.00000
     10 C10         1.0364    2.8449    0.0000 C.ar      1 <0>        0.00000
     11 C11         2.6864   -1.4419    0.0000 C.3       1 <0>        0.00000
     12 S1         -1.1030   -2.1956    0.0000 S.3       1 <0>        0.00000
     13 N1         -2.2590   -1.5282    0.0000 N.ar      1 <0>        0.00000
     14 N2         -2.4306   -2.3352    0.0000 N.ar      1 <0>        0.00000
     15 N3         -1.0261   -0.7275    0.0000 N.am      1 <0>        0.00000
     16 S2         -1.6299   -3.5681    0.0000 S.3       1 <0>        0.00000
     17 O1          0.2114   -1.4419    0.0000 O.2       1 <0>        0.00000
     18 N4          0.2114   -0.0130    0.0000 N.am      1 <0>        0.00000
     19 C12         1.0364   -0.0130    0.0000 C.3       1 <0>        0.00000
     20 C13         1.4489   -0.7275    0.0000 C.2       1 <0>        0.00000
     21 O2          1.0364   -1.4419    0.0000 O.2       1 <0>        0.00000
     22 N5          2.2739   -0.7275    0.0000 N.am      1 <0>        0.00000
     23 F1         -0.2011    0.7015    0.0000 F         1 <0>        0.00000
     24 F2         -1.0261    2.1304    0.0000 F         1 <0>        0.00000
     25 F3         -0.2011    3.5594    0.0000 F         1 <0>        0.00000
     26 F4          1.4489    3.5594    0.0000 F         1 <0>        0.00000
     27 F5          2.2739    2.1304    0.0000 F         1 <0>        0.00000
     28 H1          0.7445    0.4927    0.0000 H         1 <0>        0.00000
     29 H2          1.4489    0.7015    0.0000 H         1 <0>        0.00000
     30 H3          1.4489    0.7015    0.0000 H         1 <0>        0.00000
     31 H4          2.6864   -1.4419    0.0000 H         1 <0>        0.00000
     32 H5          2.6864   -1.4419    0.0000 H         1 <0>        0.00000
     33 H6          2.6864   -1.4419    0.0000 H         1 <0>        0.00000
     34 H7         -1.0261   -0.7275    0.0000 H         1 <0>        0.00000
     35 H8         -1.6299   -3.5681    0.0000 H         1 <0>        0.00000
     36 H9          0.2114   -0.0130    0.0000 H         1 <0>        0.00000
     37 H10         2.2739   -0.7275    0.0000 H         1 <0>        0.00000
@<TRIPOS>BOND
     1    1   12 1
     2    1   13 2
     3    1   15 1
     4    2   12 1
     5    2   14 2
     6    2   16 1
     7    3   15 am
     8    3   17 2
     9    3   18 am
    10    4    6 1
    11    4   19 1
    12    5    6 ar
    13    5   10 ar
    14    5   27 1
    15    6    7 ar
    16    7    8 ar
    17    7   23 1
    18    8    9 ar
    19    8   24 1
    20    9   10 ar
    21    9   25 1
    22   10   26 1
    23   11   22 1
    24   13   14 1
    25   18   19 1
    26   19   20 1
    27   19   28 1
    28   20   21 2
    29   20   22 am
    30    4   29 1
    31    4   30 1
    32   11   31 1
    33   11   32 1
    34   11   33 1
    35   15   34 1
    36   16   35 1
    37   18   36 1
    38   22   37 1
@<TRIPOS>SUBSTRUCTURE
     1 <0>         1 GROUP 0 A     ****
@<TRIPOS>MOLECULE
*****
   30    29     1     0     0
SMALL
NO_CHARGES

@<TRIPOS>ATOM
      1 O1          1.7605    1.8414    0.0000 O.3       1 <0>        0.00000
      2 C1          2.4750    1.4289    0.0000 C.3       1 <0>        0.00000
      3 C2          3.1895    1.8414    0.0000 C.3       1 <0>        0.00000
      4 C3          3.9039    1.4289    0.0000 C.3       1 <0>        0.00000
      5 O2          3.9039    0.6039    0.0000 O.3       1 <0>        0.00000
      6 C4          4.6184    1.8414    0.0000 C.3       1 <0>        0.00000
      7 O3          4.6184    2.6664    0.0000 O.3       1 <0>        0.00000
      8 C5          5.3329    1.4289    0.0000 C.3       1 <0>        0.00000
      9 O4          5.3329    0.6039    0.0000 O.3       1 <0>        0.00000
     10 C6          6.0474    1.8414    0.0000 C.2       1 <0>        0.00000
     11 C7          6.7618    1.4289    0.0000 C.2       1 <0>        0.00000
     12 P1          7.4763    1.8414    0.0000 P.3       1 <0>        0.00000
     13 O5          8.1908    2.2539    0.0000 O.3       1 <0>        0.00000
     14 O6          7.8888    1.1270    0.0000 O.3       1 <0>        0.00000
     15 O7          7.0638    2.5559    0.0000 O.2       1 <0>        0.00000
     16 H1          1.7605    1.8414    0.0000 H         1 <0>        0.00000
     17 H2          2.4750    1.4289    0.0000 H         1 <0>        0.00000
     18 H3          2.4750    1.4289    0.0000 H         1 <0>        0.00000
     19 H4          3.1895    1.8414    0.0000 H         1 <0>        0.00000
     20 H5          3.1895    1.8414    0.0000 H         1 <0>        0.00000
     21 H6          3.9039    1.4289    0.0000 H         1 <0>        0.00000
     22 H7          3.9039    0.6039    0.0000 H         1 <0>        0.00000
     23 H8          4.6184    1.8414    0.0000 H         1 <0>        0.00000
     24 H9          4.6184    2.6664    0.0000 H         1 <0>        0.00000
     25 H10         5.3329    1.4289    0.0000 H         1 <0>        0.00000
     26 H11         5.3329    0.6039    0.0000 H         1 <0>        0.00000
     27 H12         6.0474    1.8414    0.0000 H         1 <0>        0.00000
     28 H13         6.7618    1.4289    0.0000 H         1 <0>        0.00000
     29 H14         8.1908    2.2539    0.0000 H         1 <0>        0.00000
     30 H15         7.8888    1.1270    0.0000 H         1 <0>        0.00000
@<TRIPOS>BOND
     1    1    2 1
     2    2    3 1
     3    3    4 1
     4    4    5 1
     5    4    6 1
     6    6    7 1
     7    6    8 1
     8    8    9 1
     9    8   10 1
    10   10   11 2
    11   11   12 1
    12   12   13 1
    13   12   14 1
    14   12   15 2
    15    1   16 1
    16    2   17 1
    17    2   18 1
    18    3   19 1
    19    3   20 1
    20    4   21 1
    21    5   22 1
    22    6   23 1
    23    7   24 1
    24    8   25 1
    25    9   26 1
    26   10   27 1
    27   11   28 1
    28   13   29 1
    29   14   30 1
@<TRIPOS>SUBSTRUCTURE
     1 <0>         1 GROUP 0 A     ****
@<TRIPOS>MOLECULE
*****
   85    87     1     0     0
SMALL
NO_CHARGES

@<TRIPOS>ATOM
      1 C1          0.7642    0.0140    0.0000 C.3       1 <0>        0.00000
      2 C2          0.3517    0.7285    0.0000 C.3       1 <0>        0.00000
      3 C3         -0.0608    1.4430    0.0000 C.3       1 <0>        0.00000
      4 C4         -0.3628    0.3160    0.0000 C.3       1 <0>        0.00000
      5 O1         -1.0772    0.7285    0.0000 O.3       1 <0>        0.00000
      6 P1         -1.7917    0.3160    0.0000 P.3       1 <0>        0.00000
      7 O2         -1.3792   -0.3985    0.0000 O.3       1 <0>        0.00000
      8 O3         -2.2042    1.0305    0.0000 O.2       1 <0>        0.00000
      9 O4         -2.5062   -0.0965    0.0000 O.3       1 <0>        0.00000
     10 P2         -3.2206    0.3160    0.0000 P.3       1 <0>        0.00000
     11 O5         -3.6331   -0.3985    0.0000 O.3       1 <0>        0.00000
     12 O6         -2.8081    1.0305    0.0000 O.2       1 <0>        0.00000
     13 O7         -3.9351    0.7285    0.0000 O.3       1 <0>        0.00000
     14 C5         -4.6496    0.3160    0.0000 C.3       1 <0>        0.00000
     15 C6         -5.3641    0.7285    0.0000 C.3       1 <0>        0.00000
     16 O8         -6.1177    0.3929    0.0000 O.3       1 <0>        0.00000
     17 C7         -6.6698    1.0060    0.0000 C.3       1 <0>        0.00000
     18 C8         -6.2573    1.7205    0.0000 C.3       1 <0>        0.00000
     19 O9         -6.5928    2.4742    0.0000 O.3       1 <0>        0.00000
     20 C9         -5.4503    1.5490    0.0000 C.3       1 <0>        0.00000
     21 O10        -4.8372    2.1010    0.0000 O.3       1 <0>        0.00000
     22 P3         -4.0526    1.8461    0.0000 P.3       1 <0>        0.00000
     23 O11        -4.3075    1.0615    0.0000 O.3       1 <0>        0.00000
     24 O12        -3.7976    2.6307    0.0000 O.3       1 <0>        0.00000
     25 O13        -3.2679    1.5911    0.0000 O.2       1 <0>        0.00000
     26 N1         -7.4902    0.9198    0.0000 N.pl3     1 <0>        0.00000
     27 C10        -8.0423    1.5329    0.0000 C.ar      1 <0>        0.00000
     28 N2         -8.7959    1.1973    0.0000 N.ar      1 <0>        0.00000
     29 C11        -8.7097    0.3769    0.0000 C.ar      1 <0>        0.00000
     30 C12        -7.9027    0.2053    0.0000 C.ar      1 <0>        0.00000
     31 N3         -7.6478   -0.5793    0.0000 N.ar      1 <0>        0.00000
     32 C13        -8.1998   -1.1924    0.0000 C.ar      1 <0>        0.00000
     33 N4         -9.0068   -1.0209    0.0000 N.ar      1 <0>        0.00000
     34 C14        -9.2617   -0.2362    0.0000 C.ar      1 <0>        0.00000
     35 N5        -10.0687   -0.0647    0.0000 N.pl3     1 <0>        0.00000
     36 C15         1.0662    1.1410    0.0000 C.3       1 <0>        0.00000
     37 O14         1.0662    1.9660    0.0000 O.3       1 <0>        0.00000
     38 C16         1.7807    0.7285    0.0000 C.2       1 <0>        0.00000
     39 O15         1.7807   -0.0965    0.0000 O.2       1 <0>        0.00000
     40 N6          2.4951    1.1410    0.0000 N.am      1 <0>        0.00000
     41 C17         3.2096    0.7285    0.0000 C.3       1 <0>        0.00000
     42 C18         3.9241    1.1410    0.0000 C.3       1 <0>        0.00000
     43 C19         4.6385    0.7285    0.0000 C.2       1 <0>        0.00000
     44 O16         4.6385   -0.0965    0.0000 O.2       1 <0>        0.00000
     45 N7          5.3530    1.1410    0.0000 N.am      1 <0>        0.00000
     46 C20         6.0675    0.7285    0.0000 C.3       1 <0>        0.00000
     47 C21         6.7820    1.1410    0.0000 C.3       1 <0>        0.00000
     48 S1          7.4964    0.7285    0.0000 S.3       1 <0>        0.00000
     49 O17         8.2109    1.1410    0.0000 O.3       1 <0>        0.00000
     50 H1          0.7642    0.0140    0.0000 H         1 <0>        0.00000
     51 H2          0.7642    0.0140    0.0000 H         1 <0>        0.00000
     52 H3          0.7642    0.0140    0.0000 H         1 <0>        0.00000
     53 H4         -0.0608    1.4430    0.0000 H         1 <0>        0.00000
     54 H5         -0.0608    1.4430    0.0000 H         1 <0>        0.00000
     55 H6         -0.0608    1.4430    0.0000 H         1 <0>        0.00000
     56 H7         -0.3628    0.3160    0.0000 H         1 <0>        0.00000
     57 H8         -0.3628    0.3160    0.0000 H         1 <0>        0.00000
     58 H9         -1.3792   -0.3985    0.0000 H         1 <0>        0.00000
     59 H10        -3.6331   -0.3985    0.0000 H         1 <0>        0.00000
     60 H11        -4.6496    0.3160    0.0000 H         1 <0>        0.00000
     61 H12        -4.6496    0.3160    0.0000 H         1 <0>        0.00000
     62 H13        -5.3641    0.7285    0.0000 H         1 <0>        0.00000
     63 H14        -6.6698    1.0060    0.0000 H         1 <0>        0.00000
     64 H15        -6.2573    1.7205    0.0000 H         1 <0>        0.00000
     65 H16        -6.5928    2.4742    0.0000 H         1 <0>        0.00000
     66 H17        -5.4503    1.5490    0.0000 H         1 <0>        0.00000
     67 H18        -4.3075    1.0615    0.0000 H         1 <0>        0.00000
     68 H19        -3.7976    2.6307    0.0000 H         1 <0>        0.00000
     69 H20        -8.0423    1.5329    0.0000 H         1 <0>        0.00000
     70 H21        -8.1998   -1.1924    0.0000 H         1 <0>        0.00000
     71 H22       -10.0687   -0.0647    0.0000 H         1 <0>        0.00000
     72 H23       -10.0687   -0.0647    0.0000 H         1 <0>        0.00000
     73 H24         1.0662    1.1410    0.0000 H         1 <0>        0.00000
     74 H25         1.0662    1.9660    0.0000 H         1 <0>        0.00000
     75 H26         2.4951    1.1410    0.0000 H         1 <0>        0.00000
     76 H27         3.2096    0.7285    0.0000 H         1 <0>        0.00000
     77 H28         3.2096    0.7285    0.0000 H         1 <0>        0.00000
     78 H29         3.9241    1.1410    0.0000 H         1 <0>        0.00000
     79 H30         3.9241    1.1410    0.0000 H         1 <0>        0.00000
     80 H31         5.3530    1.1410    0.0000 H         1 <0>        0.00000
     81 H32         6.0675    0.7285    0.0000 H         1 <0>        0.00000
     82 H33         6.0675    0.7285    0.0000 H         1 <0>        0.00000
     83 H34         6.7820    1.1410    0.0000 H         1 <0>        0.00000
     84 H35         6.7820    1.1410    0.0000 H         1 <0>        0.00000
     85 H36         8.2109    1.1410    0.0000 H         1 <0>        0.00000
@<TRIPOS>BOND
     1    1    2 1
     2    2    3 1
     3    2    4 1
     4    4    5 1
     5    5    6 1
     6    6    7 1
     7    6    8 2
     8    6    9 1
     9    9   10 1
    10   10   11 1
    11   10   12 2
    12   10   13 1
    13   13   14 1
    14   14   15 1
    15   15   16 1
    16   16   17 1
    17   17   18 1
    18   18   19 1
    19   18   20 1
    20   15   20 1
    21   20   21 1
    22   21   22 1
    23   22   23 1
    24   22   24 1
    25   22   25 2
    26   17   26 1
    27   26   27 1
    28   27   28 2
    29   28   29 1
    30   29   30 ar
    31   26   30 1
    32   30   31 ar
    33   31   32 ar
    34   32   33 ar
    35   33   34 ar
    36   29   34 ar
    37   34   35 1
    38    2   36 1
    39   36   37 1
    40   36   38 1
    41   38   39 2
    42   38   40 am
    43   40   41 1
    44   41   42 1
    45   42   43 1
    46   43   44 2
    47   43   45 am
    48   45   46 1
    49   46   47 1
    50   47   48 1
    51   48   49 1
    52    1   50 1
    53    1   51 1
    54    1   52 1
    55    3   53 1
    56    3   54 1
    57    3   55 1
    58    4   56 1
    59    4   57 1
    60    7   58 1
    61   11   59 1
    62   14   60 1
    63   14   61 1
    64   15   62 1
    65   17   63 1
    66   18   64 1
    67   19   65 1
    68   20   66 1
    69   23   67 1
    70   24   68 1
    71   27   69 1
    72   32   70 1
    73   35   71 1
    74   35   72 1
    75   36   73 1
    76   37   74 1
    77   40   75 1
    78   41   76 1
    79   41   77 1
    80   42   78 1
    81   42   79 1
    82   45   80 1
    83   46   81 1
    84   46   82 1
    85   47   83 1
    86   47   84 1
    87   49   85 1
@<TRIPOS>SUBSTRUCTURE
     1 <0>         1 GROUP 0 A     ****
@<TRIPOS>MOLECULE
*****
   65    65     1     0     0
SMALL
NO_CHARGES

@<TRIPOS>ATOM
      1 N1         -0.3615    0.4659    0.0000 N.2       1 <0>        0.00000
      2 C1         -0.0337    1.2230    0.0000 C.2       1 <0>        0.00000
      3 N2         -0.5254    1.8854    0.0000 N.pl3     1 <0>        0.00000
      4 C2          0.7859    1.3176    0.0000 C.ar      1 <0>        0.00000
      5 C3          1.1137    2.0747    0.0000 C.ar      1 <0>        0.00000
      6 C4          1.9332    2.1693    0.0000 C.ar      1 <0>        0.00000
      7 C5          2.4250    1.5069    0.0000 C.ar      1 <0>        0.00000
      8 C6          3.2445    1.6015    0.0000 C.3       1 <0>        0.00000
      9 N3          3.7363    0.9391    0.0000 N.am      1 <0>        0.00000
     10 C7          4.5558    1.0337    0.0000 C.2       1 <0>        0.00000
     11 O1          4.8836    1.7908    0.0000 O.2       1 <0>        0.00000
     12 C8          5.0476    0.3713    0.0000 C.3       1 <0>        0.00000
     13 C9          4.7197   -0.3858    0.0000 C.3       1 <0>        0.00000
     14 C10         3.9002   -0.4804    0.0000 C.3       1 <0>        0.00000
     15 S1          3.5724   -1.2375    0.0000 S.3       1 <0>        0.00000
     16 C11         2.7528   -1.3321    0.0000 C.3       1 <0>        0.00000
     17 N4          5.8671    0.4659    0.0000 N.am      1 <0>        0.00000
     18 C12         6.3588   -0.1965    0.0000 C.2       1 <0>        0.00000
     19 O2          6.0310   -0.9536    0.0000 O.2       1 <0>        0.00000
     20 C13         7.1784   -0.1019    0.0000 C.3       1 <0>        0.00000
     21 N5          7.6701   -0.7643    0.0000 N.pl3     1 <0>        0.00000
     22 S2          8.4897   -0.6697    0.0000 S.o2      1 <0>        0.00000
     23 O3          8.5843   -1.4893    0.0000 O.2       1 <0>        0.00000
     24 O4          8.3950    0.1499    0.0000 O.2       1 <0>        0.00000
     25 C14         9.3092   -0.5751    0.0000 C.3       1 <0>        0.00000
     26 C15         9.8010   -1.2375    0.0000 C.3       1 <0>        0.00000
     27 C16        10.6205   -1.1429    0.0000 C.3       1 <0>        0.00000
     28 C17         7.5062    0.6552    0.0000 C.3       1 <0>        0.00000
     29 C18         8.3258    0.7498    0.0000 C.3       1 <0>        0.00000
     30 O5          7.0145    1.3176    0.0000 O.3       1 <0>        0.00000
     31 C19         2.0972    0.7498    0.0000 C.ar      1 <0>        0.00000
     32 C20         1.2776    0.6552    0.0000 C.ar      1 <0>        0.00000
     33 H1         -0.3615    0.4659    0.0000 H         1 <0>        0.00000
     34 H2         -0.5254    1.8854    0.0000 H         1 <0>        0.00000
     35 H3         -0.5254    1.8854    0.0000 H         1 <0>        0.00000
     36 H4          1.1137    2.0747    0.0000 H         1 <0>        0.00000
     37 H5          1.9332    2.1693    0.0000 H         1 <0>        0.00000
     38 H6          3.2445    1.6015    0.0000 H         1 <0>        0.00000
     39 H7          3.2445    1.6015    0.0000 H         1 <0>        0.00000
     40 H8          3.7363    0.9391    0.0000 H         1 <0>        0.00000
     41 H9          5.0476    0.3713    0.0000 H         1 <0>        0.00000
     42 H10         4.7197   -0.3858    0.0000 H         1 <0>        0.00000
     43 H11         4.7197   -0.3858    0.0000 H         1 <0>        0.00000
     44 H12         3.9002   -0.4804    0.0000 H         1 <0>        0.00000
     45 H13         3.9002   -0.4804    0.0000 H         1 <0>        0.00000
     46 H14         2.7528   -1.3321    0.0000 H         1 <0>        0.00000
     47 H15         2.7528   -1.3321    0.0000 H         1 <0>        0.00000
     48 H16         2.7528   -1.3321    0.0000 H         1 <0>        0.00000
     49 H17         5.8671    0.4659    0.0000 H         1 <0>        0.00000
     50 H18         7.1784   -0.1019    0.0000 H         1 <0>        0.00000
     51 H19         7.6701   -0.7643    0.0000 H         1 <0>        0.00000
     52 H20         9.3092   -0.5751    0.0000 H         1 <0>        0.00000
     53 H21         9.3092   -0.5751    0.0000 H         1 <0>        0.00000
     54 H22         9.8010   -1.2375    0.0000 H         1 <0>        0.00000
     55 H23         9.8010   -1.2375    0.0000 H         1 <0>        0.00000
     56 H24        10.6205   -1.1429    0.0000 H         1 <0>        0.00000
     57 H25        10.6205   -1.1429    0.0000 H         1 <0>        0.00000
     58 H26        10.6205   -1.1429    0.0000 H         1 <0>        0.00000
     59 H27         7.5062    0.6552    0.0000 H         1 <0>        0.00000
     60 H28         8.3258    0.7498    0.0000 H         1 <0>        0.00000
     61 H29         8.3258    0.7498    0.0000 H         1 <0>        0.00000
     62 H30         8.3258    0.7498    0.0000 H         1 <0>        0.00000
     63 H31         7.0145    1.3176    0.0000 H         1 <0>        0.00000
     64 H32         2.0972    0.7498    0.0000 H         1 <0>        0.00000
     65 H33         1.2776    0.6552    0.0000 H         1 <0>        0.00000
@<TRIPOS>BOND
     1    1    2 2
     2    2    3 1
     3    2    4 1
     4    4    5 ar
     5    5    6 ar
     6    6    7 ar
     7    7    8 1
     8    8    9 1
     9    9   10 am
    10   10   11 2
    11   10   12 1
    12   12   13 1
    13   13   14 1
    14   14   15 1
    15   15   16 1
    16   12   17 1
    17   17   18 am
    18   18   19 2
    19   18   20 1
    20   20   21 1
    21   21   22 1
    22   22   23 2
    23   22   24 2
    24   22   25 1
    25   25   26 1
    26   26   27 1
    27   20   28 1
    28   28   29 1
    29   28   30 1
    30    7   31 ar
    31   31   32 ar
    32    4   32 ar
    33    1   33 1
    34    3   34 1
    35    3   35 1
    36    5   36 1
    37    6   37 1
    38    8   38 1
    39    8   39 1
    40    9   40 1
    41   12   41 1
    42   13   42 1
    43   13   43 1
    44   14   44 1
    45   14   45 1
    46   16   46 1
    47   16   47 1
    48   16   48 1
    49   17   49 1
    50   20   50 1
    51   21   51 1
    52   25   52 1
    53   25   53 1
    54   26   54 1
    55   26   55 1
    56   27   56 1
    57   27   57 1
    58   27   58 1
    59   28   59 1
    60   29   60 1
    61   29   61 1
    62   29   62 1
    63   30   63 1
    64   31   64 1
    65   32   65 1
@<TRIPOS>SUBSTRUCTURE
     1 <0>         1 GROUP 0 A     ****
@<TRIPOS>MOLECULE
669
   41    42     1     0     0
SMALL
NO_CHARGES

@<TRIPOS>ATOM
      1 S1          3.0791   -0.5207    0.0000 S.o2      1 <0>        0.00000
      2 O1          3.4916   -1.2351    0.0000 O.2       1 <0>        0.00000
      3 O2          2.6665    0.1938    0.0000 O.2       1 <0>        0.00000
      4 N1          6.7176   -1.5972    0.0000 N.pl3     1 <0>        0.00000
      5 N2          8.0375    1.4693    0.0000 N.3       1 <0>        0.00000
      6 N3          2.3645   -0.9332    0.0000 N.pl3     1 <0>        0.00000
      7 C1          6.7176   -0.2693    0.0000 C.ar      1 <0>        0.00000
      8 C2          5.9370   -0.5207    0.0000 C.ar      1 <0>        0.00000
      9 C3          6.9739    0.5149    0.0000 C.3       1 <0>        0.00000
     10 C4          5.9370   -1.3457    0.0000 C.ar      1 <0>        0.00000
     11 C5          4.5080   -0.5207    0.0000 C.ar      1 <0>        0.00000
     12 C6          7.7812    0.6851    0.0000 C.3       1 <0>        0.00000
     13 C7          5.2224   -0.1082    0.0000 C.ar      1 <0>        0.00000
     14 C8          7.1991   -0.9332    0.0000 C.ar      1 <0>        0.00000
     15 C9          3.7935   -0.1082    0.0000 C.3       1 <0>        0.00000
     16 C10         5.2224   -1.7582    0.0000 C.ar      1 <0>        0.00000
     17 C11         4.5080   -1.3457    0.0000 C.ar      1 <0>        0.00000
     18 C12         8.8448    1.6394    0.0000 C.3       1 <0>        0.00000
     19 C13         7.4865    2.0833    0.0000 C.3       1 <0>        0.00000
     20 C14         1.6500   -0.5207    0.0000 C.3       1 <0>        0.00000
     21 H1          6.7176   -1.5972    0.0000 H         1 <0>        0.00000
     22 H2          2.3645   -0.9332    0.0000 H         1 <0>        0.00000
     23 H3          6.9739    0.5149    0.0000 H         1 <0>        0.00000
     24 H4          6.9739    0.5149    0.0000 H         1 <0>        0.00000
     25 H5          7.7812    0.6851    0.0000 H         1 <0>        0.00000
     26 H6          7.7812    0.6851    0.0000 H         1 <0>        0.00000
     27 H7          5.2224   -0.1082    0.0000 H         1 <0>        0.00000
     28 H8          7.1991   -0.9332    0.0000 H         1 <0>        0.00000
     29 H9          3.7935   -0.1082    0.0000 H         1 <0>        0.00000
     30 H10         3.7935   -0.1082    0.0000 H         1 <0>        0.00000
     31 H11         5.2224   -1.7582    0.0000 H         1 <0>        0.00000
     32 H12         4.5080   -1.3457    0.0000 H         1 <0>        0.00000
     33 H13         8.8448    1.6394    0.0000 H         1 <0>        0.00000
     34 H14         8.8448    1.6394    0.0000 H         1 <0>        0.00000
     35 H15         8.8448    1.6394    0.0000 H         1 <0>        0.00000
     36 H16         7.4865    2.0833    0.0000 H         1 <0>        0.00000
     37 H17         7.4865    2.0833    0.0000 H         1 <0>        0.00000
     38 H18         7.4865    2.0833    0.0000 H         1 <0>        0.00000
     39 H19         1.6500   -0.5207    0.0000 H         1 <0>        0.00000
     40 H20         1.6500   -0.5207    0.0000 H         1 <0>        0.00000
     41 H21         1.6500   -0.5207    0.0000 H         1 <0>        0.00000
@<TRIPOS>BOND
     1    1    2 2
     2    1    3 2
     3    1    6 1
     4    1   15 1
     5    4   10 1
     6    4   14 1
     7    5   12 1
     8    5   18 1
     9    5   19 1
    10    6   20 1
    11    7    8 1
    12    7    9 1
    13    7   14 2
    14    8   10 ar
    15    8   13 ar
    16    9   12 1
    17   10   16 ar
    18   11   13 ar
    19   11   15 1
    20   11   17 ar
    21   16   17 ar
    22    4   21 1
    23    6   22 1
    24    9   23 1
    25    9   24 1
    26   12   25 1
    27   12   26 1
    28   13   27 1
    29   14   28 1
    30   15   29 1
    31   15   30 1
    32   16   31 1
    33   17   32 1
    34   18   33 1
    35   18   34 1
    36   18   35 1
    37   19   36 1
    38   19   37 1
    39   19   38 1
    40   20   39 1
    41   20   40 1
    42   20   41 1
@<TRIPOS>SUBSTRUCTURE
     1 <0>         1 GROUP 0 A     ****
@<TRIPOS>MOLECULE
*****
   72    73     1     0     0
SMALL
NO_CHARGES

@<TRIPOS>ATOM
      1 C1         -8.2021   -6.8144    0.0000 C.3       1 <0>        0.00000
      2 C2         -8.0306   -6.0074    0.0000 C.3       1 <0>        0.00000
      3 C3         -8.6437   -5.4554    0.0000 C.3       1 <0>        0.00000
      4 C4         -7.2460   -5.7525    0.0000 C.3       1 <0>        0.00000
      5 C5         -6.6329   -6.3045    0.0000 C.3       1 <0>        0.00000
      6 N1         -6.8044   -7.1115    0.0000 N.pl3     1 <0>        0.00000
      7 S1         -7.5890   -7.3664    0.0000 S.o2      1 <0>        0.00000
      8 O1         -7.3341   -8.1510    0.0000 O.2       1 <0>        0.00000
      9 O2         -7.8440   -6.5818    0.0000 O.2       1 <0>        0.00000
     10 C6         -8.3736   -7.6213    0.0000 C.3       1 <0>        0.00000
     11 C7         -8.5452   -8.4283    0.0000 C.ar      1 <0>        0.00000
     12 C8         -7.9321   -8.9803    0.0000 C.ar      1 <0>        0.00000
     13 C9         -8.1036   -9.7873    0.0000 C.ar      1 <0>        0.00000
     14 C10        -8.8882  -10.0423    0.0000 C.ar      1 <0>        0.00000
     15 C11        -9.5013   -9.4902    0.0000 C.ar      1 <0>        0.00000
     16 C12        -9.3298   -8.6832    0.0000 C.ar      1 <0>        0.00000
     17 C13        -5.8482   -6.0495    0.0000 C.2       1 <0>        0.00000
     18 O3         -5.2351   -6.6016    0.0000 O.2       1 <0>        0.00000
     19 N2         -5.6767   -5.2426    0.0000 N.am      1 <0>        0.00000
     20 C14        -6.2287   -4.6295    0.0000 C.3       1 <0>        0.00000
     21 C15        -5.8162   -3.9150    0.0000 C.3       1 <0>        0.00000
     22 C16        -5.0093   -4.0865    0.0000 C.3       1 <0>        0.00000
     23 C17        -4.9230   -4.9070    0.0000 C.3       1 <0>        0.00000
     24 C18        -4.2086   -5.3195    0.0000 C.2       1 <0>        0.00000
     25 O4         -4.2086   -6.1445    0.0000 O.2       1 <0>        0.00000
     26 N3         -3.4941   -4.9070    0.0000 N.am      1 <0>        0.00000
     27 C19        -2.7796   -5.3195    0.0000 C.3       1 <0>        0.00000
     28 C20        -2.0652   -4.9070    0.0000 C.3       1 <0>        0.00000
     29 C21        -1.3507   -5.3195    0.0000 C.3       1 <0>        0.00000
     30 C22        -0.6362   -4.9070    0.0000 C.3       1 <0>        0.00000
     31 N4          0.0783   -5.3195    0.0000 N.2       1 <0>        0.00000
     32 C23         0.7927   -4.9070    0.0000 C.2       1 <0>        0.00000
     33 N5          0.7927   -4.0820    0.0000 N.pl3     1 <0>        0.00000
     34 N6          1.5072   -5.3195    0.0000 N.pl3     1 <0>        0.00000
     35 H1         -8.2021   -6.8144    0.0000 H         1 <0>        0.00000
     36 H2         -8.2021   -6.8144    0.0000 H         1 <0>        0.00000
     37 H3         -8.2021   -6.8144    0.0000 H         1 <0>        0.00000
     38 H4         -8.0306   -6.0074    0.0000 H         1 <0>        0.00000
     39 H5         -8.6437   -5.4554    0.0000 H         1 <0>        0.00000
     40 H6         -8.6437   -5.4554    0.0000 H         1 <0>        0.00000
     41 H7         -8.6437   -5.4554    0.0000 H         1 <0>        0.00000
     42 H8         -7.2460   -5.7525    0.0000 H         1 <0>        0.00000
     43 H9         -7.2460   -5.7525    0.0000 H         1 <0>        0.00000
     44 H10        -6.6329   -6.3045    0.0000 H         1 <0>        0.00000
     45 H11        -6.8044   -7.1115    0.0000 H         1 <0>        0.00000
     46 H12        -8.3736   -7.6213    0.0000 H         1 <0>        0.00000
     47 H13        -8.3736   -7.6213    0.0000 H         1 <0>        0.00000
     48 H14        -7.9321   -8.9803    0.0000 H         1 <0>        0.00000
     49 H15        -8.1036   -9.7873    0.0000 H         1 <0>        0.00000
     50 H16        -8.8882  -10.0423    0.0000 H         1 <0>        0.00000
     51 H17        -9.5013   -9.4902    0.0000 H         1 <0>        0.00000
     52 H18        -9.3298   -8.6832    0.0000 H         1 <0>        0.00000
     53 H19        -6.2287   -4.6295    0.0000 H         1 <0>        0.00000
     54 H20        -6.2287   -4.6295    0.0000 H         1 <0>        0.00000
     55 H21        -5.8162   -3.9150    0.0000 H         1 <0>        0.00000
     56 H22        -5.8162   -3.9150    0.0000 H         1 <0>        0.00000
     57 H23        -5.0093   -4.0865    0.0000 H         1 <0>        0.00000
     58 H24        -5.0093   -4.0865    0.0000 H         1 <0>        0.00000
     59 H25        -4.9230   -4.9070    0.0000 H         1 <0>        0.00000
     60 H26        -3.4941   -4.9070    0.0000 H         1 <0>        0.00000
     61 H27        -2.7796   -5.3195    0.0000 H         1 <0>        0.00000
     62 H28        -2.7796   -5.3195    0.0000 H         1 <0>        0.00000
     63 H29        -2.0652   -4.9070    0.0000 H         1 <0>        0.00000
     64 H30        -2.0652   -4.9070    0.0000 H         1 <0>        0.00000
     65 H31        -1.3507   -5.3195    0.0000 H         1 <0>        0.00000
     66 H32        -1.3507   -5.3195    0.0000 H         1 <0>        0.00000
     67 H33        -0.6362   -4.9070    0.0000 H         1 <0>        0.00000
     68 H34        -0.6362   -4.9070    0.0000 H         1 <0>        0.00000
     69 H35         0.7927   -4.0820    0.0000 H         1 <0>        0.00000
     70 H36         0.7927   -4.0820    0.0000 H         1 <0>        0.00000
     71 H37         1.5072   -5.3195    0.0000 H         1 <0>        0.00000
     72 H38         1.5072   -5.3195    0.0000 H         1 <0>        0.00000
@<TRIPOS>BOND
     1    1    2 1
     2    2    3 1
     3    2    4 1
     4    4    5 1
     5    5    6 1
     6    6    7 1
     7    7    8 2
     8    7    9 2
     9    7   10 1
    10   10   11 1
    11   11   12 ar
    12   12   13 ar
    13   13   14 ar
    14   14   15 ar
    15   15   16 ar
    16   11   16 ar
    17    5   17 1
    18   17   18 2
    19   17   19 am
    20   19   20 1
    21   20   21 1
    22   21   22 1
    23   22   23 1
    24   19   23 1
    25   23   24 1
    26   24   25 2
    27   24   26 am
    28   26   27 1
    29   27   28 1
    30   28   29 1
    31   29   30 1
    32   30   31 1
    33   31   32 2
    34   32   33 1
    35   32   34 1
    36    1   35 1
    37    1   36 1
    38    1   37 1
    39    2   38 1
    40    3   39 1
    41    3   40 1
    42    3   41 1
    43    4   42 1
    44    4   43 1
    45    5   44 1
    46    6   45 1
    47   10   46 1
    48   10   47 1
    49   12   48 1
    50   13   49 1
    51   14   50 1
    52   15   51 1
    53   16   52 1
    54   20   53 1
    55   20   54 1
    56   21   55 1
    57   21   56 1
    58   22   57 1
    59   22   58 1
    60   23   59 1
    61   26   60 1
    62   27   61 1
    63   27   62 1
    64   28   63 1
    65   28   64 1
    66   29   65 1
    67   29   66 1
    68   30   67 1
    69   30   68 1
    70   33   69 1
    71   33   70 1
    72   34   71 1
    73   34   72 1
@<TRIPOS>SUBSTRUCTURE
     1 <0>         1 GROUP 0 A     ****
@<TRIPOS>MOLECULE
SCZ
   45    49     1     0     0
SMALL
NO_CHARGES

@<TRIPOS>ATOM
      1 C1         -1.2769    1.0517    0.0000 C.ar      1 <0>        0.00000
      2 C2         -0.4923    0.7968    0.0000 C.ar      1 <0>        0.00000
      3 N1         -0.4923   -0.0282    0.0000 N.pl3     1 <0>        0.00000
      4 N2         -1.2769   -0.2832    0.0000 N.ar      1 <0>        0.00000
      5 C3         -1.7618    0.3843    0.0000 C.ar      1 <0>        0.00000
      6 N3          0.2222    1.2093    0.0000 N.ar      1 <0>        0.00000
      7 C4          0.9367    0.7968    0.0000 C.ar      1 <0>        0.00000
      8 C5          0.9367   -0.0282    0.0000 C.ar      1 <0>        0.00000
      9 C6          0.2222   -0.4407    0.0000 C.ar      1 <0>        0.00000
     10 N4          0.2222   -1.2657    0.0000 N.pl3     1 <0>        0.00000
     11 C7          1.6512    1.2093    0.0000 C.ar      1 <0>        0.00000
     12 C8         -0.4923   -1.6782    0.0000 C.3       1 <0>        0.00000
     13 C9         -0.4923   -2.5032    0.0000 C.ar      1 <0>        0.00000
     14 C10        -1.2067   -2.9157    0.0000 C.ar      1 <0>        0.00000
     15 N5         -1.2067   -3.7407    0.0000 N.ar      1 <0>        0.00000
     16 C11        -0.4923   -4.1532    0.0000 C.ar      1 <0>        0.00000
     17 C12         0.2222   -3.7407    0.0000 C.ar      1 <0>        0.00000
     18 C13         0.2222   -2.9157    0.0000 C.ar      1 <0>        0.00000
     19 C14         2.3656    0.7968    0.0000 C.ar      1 <0>        0.00000
     20 C15         3.0801    1.2093    0.0000 C.ar      1 <0>        0.00000
     21 C16         3.0801    2.0343    0.0000 C.ar      1 <0>        0.00000
     22 C17         2.3656    2.4468    0.0000 C.ar      1 <0>        0.00000
     23 C18         1.6512    2.0343    0.0000 C.ar      1 <0>        0.00000
     24 C19        -1.5318    1.8363    0.0000 C.3       1 <0>        0.00000
     25 C20        -2.1449    2.3884    0.0000 C.3       1 <0>        0.00000
     26 C21        -1.3603    2.6433    0.0000 C.3       1 <0>        0.00000
     27 H1         -1.7618    0.3843    0.0000 H         1 <0>        0.00000
     28 H2          0.9367   -0.0282    0.0000 H         1 <0>        0.00000
     29 H3          0.2222   -1.2657    0.0000 H         1 <0>        0.00000
     30 H4         -0.4923   -1.6782    0.0000 H         1 <0>        0.00000
     31 H5         -0.4923   -1.6782    0.0000 H         1 <0>        0.00000
     32 H6         -1.2067   -2.9157    0.0000 H         1 <0>        0.00000
     33 H7         -0.4923   -4.1532    0.0000 H         1 <0>        0.00000
     34 H8          0.2222   -3.7407    0.0000 H         1 <0>        0.00000
     35 H9          0.2222   -2.9157    0.0000 H         1 <0>        0.00000
     36 H10         2.3656    0.7968    0.0000 H         1 <0>        0.00000
     37 H11         3.0801    1.2093    0.0000 H         1 <0>        0.00000
     38 H12         3.0801    2.0343    0.0000 H         1 <0>        0.00000
     39 H13         2.3656    2.4468    0.0000 H         1 <0>        0.00000
     40 H14         1.6512    2.0343    0.0000 H         1 <0>        0.00000
     41 H15        -1.5318    1.8363    0.0000 H         1 <0>        0.00000
     42 H16        -2.1449    2.3884    0.0000 H         1 <0>        0.00000
     43 H17        -2.1449    2.3884    0.0000 H         1 <0>        0.00000
     44 H18        -1.3603    2.6433    0.0000 H         1 <0>        0.00000
     45 H19        -1.3603    2.6433    0.0000 H         1 <0>        0.00000
@<TRIPOS>BOND
     1    1    2 2
     2    1   24 1
     3    2    6 1
     4    2    3 1
     5    4    5 2
     6    3    4 1
     7    1    5 1
     8    6    7 2
     9    7   11 1
    10    7    8 1
    11    3    9 1
    12    8    9 2
    13   10   12 1
    14    9   10 1
    15   11   23 ar
    16   11   19 ar
    17   13   18 ar
    18   12   13 1
    19   13   14 ar
    20   15   16 ar
    21   14   15 ar
    22   16   17 ar
    23   17   18 ar
    24   19   20 ar
    25   20   21 ar
    26   21   22 ar
    27   22   23 ar
    28   24   25 1
    29   24   26 1
    30   25   26 1
    31    5   27 1
    32    8   28 1
    33   10   29 1
    34   12   30 1
    35   12   31 1
    36   14   32 1
    37   16   33 1
    38   17   34 1
    39   18   35 1
    40   19   36 1
    41   20   37 1
    42   21   38 1
    43   22   39 1
    44   23   40 1
    45   24   41 1
    46   25   42 1
    47   25   43 1
    48   26   44 1
    49   26   45 1
@<TRIPOS>SUBSTRUCTURE
     1 <0>         1 GROUP 0 A     ****
@<TRIPOS>MOLECULE
677
   25    24     1     0     0
SMALL
NO_CHARGES

@<TRIPOS>ATOM
      1 P1          3.7935    0.0000    0.0000 P.3       1 <0>        0.00000
      2 F1          3.3810    0.7145    0.0000 F         1 <0>        0.00000
      3 O1          4.5080    0.4125    0.0000 O.3       1 <0>        0.00000
      4 O2          3.0791   -0.4125    0.0000 O.3       1 <0>        0.00000
      5 O3          4.2060   -0.7145    0.0000 O.2       1 <0>        0.00000
      6 C1          5.2224    0.0000    0.0000 C.3       1 <0>        0.00000
      7 C2          2.3645    0.0000    0.0000 C.3       1 <0>        0.00000
      8 C3          5.9370    0.4125    0.0000 C.3       1 <0>        0.00000
      9 C4          5.2224   -0.8250    0.0000 C.3       1 <0>        0.00000
     10 C5          1.6500   -0.4125    0.0000 C.3       1 <0>        0.00000
     11 C6          2.3645    0.8250    0.0000 C.3       1 <0>        0.00000
     12 H1          5.2224    0.0000    0.0000 H         1 <0>        0.00000
     13 H2          2.3645    0.0000    0.0000 H         1 <0>        0.00000
     14 H3          5.9370    0.4125    0.0000 H         1 <0>        0.00000
     15 H4          5.9370    0.4125    0.0000 H         1 <0>        0.00000
     16 H5          5.9370    0.4125    0.0000 H         1 <0>        0.00000
     17 H6          5.2224   -0.8250    0.0000 H         1 <0>        0.00000
     18 H7          5.2224   -0.8250    0.0000 H         1 <0>        0.00000
     19 H8          5.2224   -0.8250    0.0000 H         1 <0>        0.00000
     20 H9          1.6500   -0.4125    0.0000 H         1 <0>        0.00000
     21 H10         1.6500   -0.4125    0.0000 H         1 <0>        0.00000
     22 H11         1.6500   -0.4125    0.0000 H         1 <0>        0.00000
     23 H12         2.3645    0.8250    0.0000 H         1 <0>        0.00000
     24 H13         2.3645    0.8250    0.0000 H         1 <0>        0.00000
     25 H14         2.3645    0.8250    0.0000 H         1 <0>        0.00000
@<TRIPOS>BOND
     1    1    2 1
     2    1    3 1
     3    1    4 1
     4    1    5 2
     5    3    6 1
     6    4    7 1
     7    6    8 1
     8    6    9 1
     9    7   10 1
    10    7   11 1
    11    6   12 1
    12    7   13 1
    13    8   14 1
    14    8   15 1
    15    8   16 1
    16    9   17 1
    17    9   18 1
    18    9   19 1
    19   10   20 1
    20   10   21 1
    21   10   22 1
    22   11   23 1
    23   11   24 1
    24   11   25 1
@<TRIPOS>SUBSTRUCTURE
     1 <0>         1 GROUP 0 A     ****
@<TRIPOS>MOLECULE
*****
   34    33     1     0     0
SMALL
NO_CHARGES

@<TRIPOS>ATOM
      1 C1          2.2836   -0.4934    0.0000 C.2       1 <0>        0.00000
      2 C2          2.2836   -1.3184    0.0000 C.1       1 <0>        0.00000
      3 C3          2.2836   -2.1434    0.0000 C.2       1 <0>        0.00000
      4 C4          2.9980   -2.5559    0.0000 C.3       1 <0>        0.00000
      5 N1          3.7125   -2.1434    0.0000 N.3       1 <0>        0.00000
      6 C5          4.4270   -2.5559    0.0000 C.3       1 <0>        0.00000
      7 C6          5.1414   -2.1434    0.0000 C.3       1 <0>        0.00000
      8 C7          5.8559   -2.5559    0.0000 C.3       1 <0>        0.00000
      9 C8          6.5704   -2.1434    0.0000 C.3       1 <0>        0.00000
     10 N2          7.2849   -2.5559    0.0000 N.3       1 <0>        0.00000
     11 C9          7.9993   -2.1434    0.0000 C.3       1 <0>        0.00000
     12 C10         8.7138   -2.5559    0.0000 C.2       1 <0>        0.00000
     13 C11         9.4283   -2.1434    0.0000 C.1       1 <0>        0.00000
     14 C12        10.1427   -1.7309    0.0000 C.2       1 <0>        0.00000
     15 H1          2.2836   -0.4934    0.0000 H         1 <0>        0.00000
     16 H2          2.2836   -0.4934    0.0000 H         1 <0>        0.00000
     17 H3          2.2836   -2.1434    0.0000 H         1 <0>        0.00000
     18 H4          2.9980   -2.5559    0.0000 H         1 <0>        0.00000
     19 H5          2.9980   -2.5559    0.0000 H         1 <0>        0.00000
     20 H6          3.7125   -2.1434    0.0000 H         1 <0>        0.00000
     21 H7          4.4270   -2.5559    0.0000 H         1 <0>        0.00000
     22 H8          4.4270   -2.5559    0.0000 H         1 <0>        0.00000
     23 H9          5.1414   -2.1434    0.0000 H         1 <0>        0.00000
     24 H10         5.1414   -2.1434    0.0000 H         1 <0>        0.00000
     25 H11         5.8559   -2.5559    0.0000 H         1 <0>        0.00000
     26 H12         5.8559   -2.5559    0.0000 H         1 <0>        0.00000
     27 H13         6.5704   -2.1434    0.0000 H         1 <0>        0.00000
     28 H14         6.5704   -2.1434    0.0000 H         1 <0>        0.00000
     29 H15         7.2849   -2.5559    0.0000 H         1 <0>        0.00000
     30 H16         7.9993   -2.1434    0.0000 H         1 <0>        0.00000
     31 H17         7.9993   -2.1434    0.0000 H         1 <0>        0.00000
     32 H18         8.7138   -2.5559    0.0000 H         1 <0>        0.00000
     33 H19        10.1427   -1.7309    0.0000 H         1 <0>        0.00000
     34 H20        10.1427   -1.7309    0.0000 H         1 <0>        0.00000
@<TRIPOS>BOND
     1    1    2 2
     2    2    3 2
     3    3    4 1
     4    4    5 1
     5    5    6 1
     6    6    7 1
     7    7    8 1
     8    8    9 1
     9    9   10 1
    10   10   11 1
    11   11   12 1
    12   12   13 2
    13   13   14 2
    14    1   15 1
    15    1   16 1
    16    3   17 1
    17    4   18 1
    18    4   19 1
    19    5   20 1
    20    6   21 1
    21    6   22 1
    22    7   23 1
    23    7   24 1
    24    8   25 1
    25    8   26 1
    26    9   27 1
    27    9   28 1
    28   10   29 1
    29   11   30 1
    30   11   31 1
    31   12   32 1
    32   14   33 1
    33   14   34 1
@<TRIPOS>SUBSTRUCTURE
     1 <0>         1 GROUP 0 A     ****
@<TRIPOS>MOLECULE
*****
   50    53     1     0     0
SMALL
NO_CHARGES

@<TRIPOS>ATOM
      1 C1          5.3397   -5.8184    0.0000 C.3       1 <0>        0.00000
      2 C2          4.6253   -5.4059    0.0000 C.3       1 <0>        0.00000
      3 N1          4.6253   -4.5809    0.0000 N.pl3     1 <0>        0.00000
      4 S1          3.9108   -4.1684    0.0000 S.3       1 <0>        0.00000
      5 C3          3.9108   -3.3434    0.0000 C.2       1 <0>        0.00000
      6 N2          3.1963   -2.9309    0.0000 N.2       1 <0>        0.00000
      7 C4          3.1963   -2.1059    0.0000 C.ar      1 <0>        0.00000
      8 C5          3.9108   -1.6934    0.0000 C.ar      1 <0>        0.00000
      9 C6          3.9108   -0.8684    0.0000 C.ar      1 <0>        0.00000
     10 C7          3.1963   -0.4559    0.0000 C.ar      1 <0>        0.00000
     11 C8          2.4818   -0.8684    0.0000 C.ar      1 <0>        0.00000
     12 C9          2.4818   -1.6934    0.0000 C.ar      1 <0>        0.00000
     13 C10         1.7674   -0.4559    0.0000 C.2       1 <0>        0.00000
     14 O1          1.2697    0.2020    0.0000 O.3       1 <0>        0.00000
     15 O2          1.2273   -1.0796    0.0000 O.2       1 <0>        0.00000
     16 C11         3.1963    0.3691    0.0000 C.ar      1 <0>        0.00000
     17 C12         3.9108    0.7816    0.0000 C.ar      1 <0>        0.00000
     18 C13         4.6253    0.3691    0.0000 C.ar      1 <0>        0.00000
     19 C14         5.3397    0.7816    0.0000 C.ar      1 <0>        0.00000
     20 C15         5.3397    1.6066    0.0000 C.ar      1 <0>        0.00000
     21 O3          6.0542    2.0191    0.0000 O.3       1 <0>        0.00000
     22 C16         4.6253    2.0191    0.0000 C.ar      1 <0>        0.00000
     23 C17         3.9108    1.6066    0.0000 C.ar      1 <0>        0.00000
     24 O4          3.1963    2.0191    0.0000 O.3       1 <0>        0.00000
     25 C18         2.4818    1.6066    0.0000 C.ar      1 <0>        0.00000
     26 C19         1.7674    2.0191    0.0000 C.ar      1 <0>        0.00000
     27 C20         1.0529    1.6066    0.0000 C.ar      1 <0>        0.00000
     28 O5          0.3384    2.0191    0.0000 O.3       1 <0>        0.00000
     29 C21         1.0529    0.7816    0.0000 C.ar      1 <0>        0.00000
     30 C22         1.7674    0.3691    0.0000 C.ar      1 <0>        0.00000
     31 C23         2.4818    0.7816    0.0000 C.ar      1 <0>        0.00000
     32 H1          5.3397   -5.8184    0.0000 H         1 <0>        0.00000
     33 H2          5.3397   -5.8184    0.0000 H         1 <0>        0.00000
     34 H3          5.3397   -5.8184    0.0000 H         1 <0>        0.00000
     35 H4          4.6253   -5.4059    0.0000 H         1 <0>        0.00000
     36 H5          4.6253   -5.4059    0.0000 H         1 <0>        0.00000
     37 H6          4.6253   -4.5809    0.0000 H         1 <0>        0.00000
     38 H7          3.9108   -3.3434    0.0000 H         1 <0>        0.00000
     39 H8          3.9108   -1.6934    0.0000 H         1 <0>        0.00000
     40 H9          3.9108   -0.8684    0.0000 H         1 <0>        0.00000
     41 H10         2.4818   -1.6934    0.0000 H         1 <0>        0.00000
     42 H11         1.2697    0.2020    0.0000 H         1 <0>        0.00000
     43 H12         4.6253    0.3691    0.0000 H         1 <0>        0.00000
     44 H13         5.3397    0.7816    0.0000 H         1 <0>        0.00000
     45 H14         6.0542    2.0191    0.0000 H         1 <0>        0.00000
     46 H15         4.6253    2.0191    0.0000 H         1 <0>        0.00000
     47 H16         1.7674    2.0191    0.0000 H         1 <0>        0.00000
     48 H17         0.3384    2.0191    0.0000 H         1 <0>        0.00000
     49 H18         1.0529    0.7816    0.0000 H         1 <0>        0.00000
     50 H19         1.7674    0.3691    0.0000 H         1 <0>        0.00000
@<TRIPOS>BOND
     1    1    2 1
     2    2    3 1
     3    3    4 1
     4    4    5 2
     5    5    6 1
     6    6    7 2
     7    7    8 1
     8    8    9 2
     9    9   10 1
    10   10   11 1
    11   11   12 2
    12    7   12 1
    13   11   13 1
    14   13   14 1
    15   13   15 2
    16   10   16 2
    17   16   17 1
    18   17   18 ar
    19   18   19 ar
    20   19   20 ar
    21   20   21 1
    22   20   22 ar
    23   22   23 ar
    24   17   23 ar
    25   23   24 1
    26   24   25 1
    27   25   26 ar
    28   26   27 ar
    29   27   28 1
    30   27   29 ar
    31   29   30 ar
    32   30   31 ar
    33   16   31 1
    34   25   31 ar
    35    1   32 1
    36    1   33 1
    37    1   34 1
    38    2   35 1
    39    2   36 1
    40    3   37 1
    41    5   38 1
    42    8   39 1
    43    9   40 1
    44   12   41 1
    45   14   42 1
    46   18   43 1
    47   19   44 1
    48   21   45 1
    49   22   46 1
    50   26   47 1
    51   28   48 1
    52   29   49 1
    53   30   50 1
@<TRIPOS>SUBSTRUCTURE
     1 <0>         1 GROUP 0 A     ****
@<TRIPOS>MOLECULE
UI3
   40    42     1     0     0
SMALL
NO_CHARGES

@<TRIPOS>ATOM
      1 C1         -1.3014   -1.5169    0.0000 C.ar      1 <0>        0.00000
      2 C2         -0.5869   -1.9294    0.0000 C.ar      1 <0>        0.00000
      3 C3          0.1275   -1.5169    0.0000 C.ar      1 <0>        0.00000
      4 C4          0.1275   -0.6919    0.0000 C.ar      1 <0>        0.00000
      5 C5         -0.5869   -0.2794    0.0000 C.ar      1 <0>        0.00000
      6 C6         -1.3014   -0.6919    0.0000 C.ar      1 <0>        0.00000
      7 C7          0.8420   -1.9294    0.0000 C.ar      1 <0>        0.00000
      8 C8          1.5565   -1.5169    0.0000 C.ar      1 <0>        0.00000
      9 C9          1.5565   -0.6919    0.0000 C.ar      1 <0>        0.00000
     10 C10         0.8420   -0.2794    0.0000 C.ar      1 <0>        0.00000
     11 C11         2.2710   -0.2794    0.0000 C.2       1 <0>        0.00000
     12 N1          2.9854   -0.6919    0.0000 N.2       1 <0>        0.00000
     13 N2          2.2710    0.5456    0.0000 N.pl3     1 <0>        0.00000
     14 O1         -2.0159   -0.2794    0.0000 O.3       1 <0>        0.00000
     15 C12        -2.0159    0.5456    0.0000 C.3       1 <0>        0.00000
     16 C13        -0.5869    0.5456    0.0000 C.ar      1 <0>        0.00000
     17 C14        -1.2544    1.0305    0.0000 C.ar      1 <0>        0.00000
     18 N3         -0.9994    1.8151    0.0000 N.pl3     1 <0>        0.00000
     19 N4         -0.1744    1.8151    0.0000 N.ar      1 <0>        0.00000
     20 C15         0.0805    1.0305    0.0000 C.ar      1 <0>        0.00000
     21 S1         -1.4843    2.4826    0.0000 S.o2      1 <0>        0.00000
     22 O2         -1.9693    3.1500    0.0000 O.2       1 <0>        0.00000
     23 O3         -0.8169    2.9675    0.0000 O.2       1 <0>        0.00000
     24 C16        -2.1518    1.9976    0.0000 C.3       1 <0>        0.00000
     25 H1         -1.3014   -1.5169    0.0000 H         1 <0>        0.00000
     26 H2         -0.5869   -1.9294    0.0000 H         1 <0>        0.00000
     27 H3          0.8420   -1.9294    0.0000 H         1 <0>        0.00000
     28 H4          1.5565   -1.5169    0.0000 H         1 <0>        0.00000
     29 H5          0.8420   -0.2794    0.0000 H         1 <0>        0.00000
     30 H6          2.9854   -0.6919    0.0000 H         1 <0>        0.00000
     31 H7          2.2710    0.5456    0.0000 H         1 <0>        0.00000
     32 H8          2.2710    0.5456    0.0000 H         1 <0>        0.00000
     33 H9         -2.0159    0.5456    0.0000 H         1 <0>        0.00000
     34 H10        -2.0159    0.5456    0.0000 H         1 <0>        0.00000
     35 H11        -2.0159    0.5456    0.0000 H         1 <0>        0.00000
     36 H12        -1.2544    1.0305    0.0000 H         1 <0>        0.00000
     37 H13         0.0805    1.0305    0.0000 H         1 <0>        0.00000
     38 H14        -2.1518    1.9976    0.0000 H         1 <0>        0.00000
     39 H15        -2.1518    1.9976    0.0000 H         1 <0>        0.00000
     40 H16        -2.1518    1.9976    0.0000 H         1 <0>        0.00000
@<TRIPOS>BOND
     1    1    2 ar
     2    1    6 ar
     3    2    3 ar
     4    3    4 ar
     5    3    7 ar
     6    4    5 ar
     7    4   10 ar
     8    5    6 ar
     9    5   16 1
    10    6   14 1
    11    7    8 ar
    12    8    9 ar
    13    9   10 ar
    14    9   11 1
    15   11   12 2
    16   11   13 1
    17   14   15 1
    18   16   17 2
    19   16   20 1
    20   17   18 1
    21   18   19 1
    22   18   21 1
    23   19   20 2
    24   21   22 2
    25   21   23 2
    26   21   24 1
    27    1   25 1
    28    2   26 1
    29    7   27 1
    30    8   28 1
    31   10   29 1
    32   12   30 1
    33   13   31 1
    34   13   32 1
    35   15   33 1
    36   15   34 1
    37   15   35 1
    38   17   36 1
    39   20   37 1
    40   24   38 1
    41   24   39 1
    42   24   40 1
@<TRIPOS>SUBSTRUCTURE
     1 <0>         1 GROUP 0 A     ****
@<TRIPOS>MOLECULE
BOS
   32    33     1     0     0
SMALL
NO_CHARGES

@<TRIPOS>ATOM
      1 N1         -0.0372    3.8255    0.0000 N.pl3     1 <0>        0.00000
      2 S1         -0.0372    3.0005    0.0000 S.o2      1 <0>        0.00000
      3 O1         -0.8622    3.0005    0.0000 O.2       1 <0>        0.00000
      4 O2          0.7878    3.0005    0.0000 O.2       1 <0>        0.00000
      5 C1         -0.0372    2.1755    0.0000 C.ar      1 <0>        0.00000
      6 C2          0.6772    1.7630    0.0000 C.ar      1 <0>        0.00000
      7 C3          0.6772    0.9380    0.0000 C.ar      1 <0>        0.00000
      8 C4         -0.0372    0.5255    0.0000 C.ar      1 <0>        0.00000
      9 C5         -0.7517    0.9380    0.0000 C.ar      1 <0>        0.00000
     10 C6         -0.7517    1.7630    0.0000 C.ar      1 <0>        0.00000
     11 N2         -0.0372   -0.2995    0.0000 N.am      1 <0>        0.00000
     12 C7          0.6772   -0.7120    0.0000 C.2       1 <0>        0.00000
     13 O3          1.3917   -0.2995    0.0000 O.2       1 <0>        0.00000
     14 C8          0.6772   -1.5370    0.0000 C.ar      1 <0>        0.00000
     15 C9          1.3917   -1.9495    0.0000 C.ar      1 <0>        0.00000
     16 C10         1.3917   -2.7745    0.0000 C.ar      1 <0>        0.00000
     17 C11         0.6772   -3.1870    0.0000 C.ar      1 <0>        0.00000
     18 C12        -0.0372   -2.7745    0.0000 C.ar      1 <0>        0.00000
     19 C13        -0.0372   -1.9495    0.0000 C.ar      1 <0>        0.00000
     20 S2         -0.7517   -1.5370    0.0000 S.3       1 <0>        0.00000
     21 H1         -0.0372    3.8255    0.0000 H         1 <0>        0.00000
     22 H2         -0.0372    3.8255    0.0000 H         1 <0>        0.00000
     23 H3          0.6772    1.7630    0.0000 H         1 <0>        0.00000
     24 H4          0.6772    0.9380    0.0000 H         1 <0>        0.00000
     25 H5         -0.7517    0.9380    0.0000 H         1 <0>        0.00000
     26 H6         -0.7517    1.7630    0.0000 H         1 <0>        0.00000
     27 H7         -0.0372   -0.2995    0.0000 H         1 <0>        0.00000
     28 H8          1.3917   -1.9495    0.0000 H         1 <0>        0.00000
     29 H9          1.3917   -2.7745    0.0000 H         1 <0>        0.00000
     30 H10         0.6772   -3.1870    0.0000 H         1 <0>        0.00000
     31 H11        -0.0372   -2.7745    0.0000 H         1 <0>        0.00000
     32 H12        -0.7517   -1.5370    0.0000 H         1 <0>        0.00000
@<TRIPOS>BOND
     1    1    2 1
     2    2    3 2
     3    2    4 2
     4    2    5 1
     5    5    6 ar
     6    5   10 ar
     7    6    7 ar
     8    7    8 ar
     9    8    9 ar
    10    8   11 1
    11    9   10 ar
    12   11   12 am
    13   12   13 2
    14   12   14 1
    15   14   15 ar
    16   14   19 ar
    17   15   16 ar
    18   16   17 ar
    19   17   18 ar
    20   18   19 ar
    21   19   20 1
    22    1   21 1
    23    1   22 1
    24    6   23 1
    25    7   24 1
    26    9   25 1
    27   10   26 1
    28   11   27 1
    29   15   28 1
    30   16   29 1
    31   17   30 1
    32   18   31 1
    33   20   32 1
@<TRIPOS>SUBSTRUCTURE
     1 <0>         1 GROUP 0 A     ****
@<TRIPOS>MOLECULE
IN8
   46    48     1     0     0
SMALL
NO_CHARGES

@<TRIPOS>ATOM
      1 C1         -3.4872   -0.2368    0.0000 C.ar      1 <0>        0.00000
      2 C2         -4.7929    0.0407    0.0000 C.ar      1 <0>        0.00000
      3 C3         -2.0583   -0.2368    0.0000 C.2       1 <0>        0.00000
      4 C4         -1.3438    1.0007    0.0000 C.ar      1 <0>        0.00000
      5 C5         -1.3438    1.8257    0.0000 C.ar      1 <0>        0.00000
      6 C6         -0.6293    2.2382    0.0000 C.ar      1 <0>        0.00000
      7 C7          0.0851    1.8257    0.0000 C.ar      1 <0>        0.00000
      8 C8          0.0851    1.0007    0.0000 C.ar      1 <0>        0.00000
      9 C9          0.7996   -0.2368    0.0000 C.2       1 <0>        0.00000
     10 C10         2.2285   -0.2368    0.0000 C.3       1 <0>        0.00000
     11 C11         4.3720   -1.4743    0.0000 C.ar      1 <0>        0.00000
     12 C12         3.6575   -1.8868    0.0000 C.ar      1 <0>        0.00000
     13 C13         2.9430   -1.4743    0.0000 C.ar      1 <0>        0.00000
     14 C14         4.3720   -0.6493    0.0000 C.ar      1 <0>        0.00000
     15 S1         -4.2409   -0.5724    0.0000 S.3       1 <0>        0.00000
     16 N1         -3.5735    0.5836    0.0000 N.ar      1 <0>        0.00000
     17 N2         -4.3804    0.7552    0.0000 N.ar      1 <0>        0.00000
     18 N3         -2.7728   -0.6493    0.0000 N.am      1 <0>        0.00000
     19 S2         -5.6134   -0.0455    0.0000 S.3       1 <0>        0.00000
     20 O1         -2.0583    0.5882    0.0000 O.2       1 <0>        0.00000
     21 C15        -1.3438   -0.6493    0.0000 C.3       1 <0>        0.00000
     22 C16        -0.6293   -0.2368    0.0000 C.3       1 <0>        0.00000
     23 C17        -0.6293    0.5882    0.0000 C.ar      1 <0>        0.00000
     24 O2          1.5141   -0.6493    0.0000 O.3       1 <0>        0.00000
     25 O3          0.7996    0.5882    0.0000 O.2       1 <0>        0.00000
     26 N4          0.0851   -0.6493    0.0000 N.am      1 <0>        0.00000
     27 C18         2.9430   -0.6493    0.0000 C.ar      1 <0>        0.00000
     28 C19         3.6575   -0.2368    0.0000 C.ar      1 <0>        0.00000
     29 H1         -1.1350    0.0551    0.0000 H         1 <0>        0.00000
     30 H2         -1.3438    1.0007    0.0000 H         1 <0>        0.00000
     31 H3         -1.3438    1.8257    0.0000 H         1 <0>        0.00000
     32 H4         -0.6293    2.2382    0.0000 H         1 <0>        0.00000
     33 H5          0.0851    1.8257    0.0000 H         1 <0>        0.00000
     34 H6          0.0851    1.0007    0.0000 H         1 <0>        0.00000
     35 H7          2.2285   -0.2368    0.0000 H         1 <0>        0.00000
     36 H8          2.2285   -0.2368    0.0000 H         1 <0>        0.00000
     37 H9          4.3720   -1.4743    0.0000 H         1 <0>        0.00000
     38 H10         3.6575   -1.8868    0.0000 H         1 <0>        0.00000
     39 H11         2.9430   -1.4743    0.0000 H         1 <0>        0.00000
     40 H12         4.3720   -0.6493    0.0000 H         1 <0>        0.00000
     41 H13        -2.7728   -0.6493    0.0000 H         1 <0>        0.00000
     42 H14        -5.6134   -0.0455    0.0000 H         1 <0>        0.00000
     43 H15        -1.3438   -0.6493    0.0000 H         1 <0>        0.00000
     44 H16        -1.3438   -0.6493    0.0000 H         1 <0>        0.00000
     45 H17         0.0851   -0.6493    0.0000 H         1 <0>        0.00000
     46 H18         3.6575   -0.2368    0.0000 H         1 <0>        0.00000
@<TRIPOS>BOND
     1    1   15 1
     2    1   16 2
     3    1   18 1
     4    2   15 1
     5    2   17 2
     6    2   19 1
     7    3   18 am
     8    3   20 2
     9    3   21 1
    10    4    5 ar
    11    4   23 ar
    12    5    6 ar
    13    6    7 ar
    14    7    8 ar
    15    8   23 ar
    16    9   24 1
    17    9   25 2
    18    9   26 am
    19   10   24 1
    20   10   27 1
    21   11   12 ar
    22   11   14 ar
    23   12   13 ar
    24   13   27 ar
    25   14   28 ar
    26   16   17 1
    27   21   22 1
    28   22   23 1
    29   22   26 1
    30   22   29 1
    31   27   28 ar
    32    4   30 1
    33    5   31 1
    34    6   32 1
    35    7   33 1
    36    8   34 1
    37   10   35 1
    38   10   36 1
    39   11   37 1
    40   12   38 1
    41   13   39 1
    42   14   40 1
    43   18   41 1
    44   19   42 1
    45   21   43 1
    46   21   44 1
    47   26   45 1
    48   28   46 1
@<TRIPOS>SUBSTRUCTURE
     1 <0>         1 GROUP 0 A     ****
@<TRIPOS>MOLECULE
JK3
   42    44     1     0     0
SMALL
NO_CHARGES

@<TRIPOS>ATOM
      1 Cl1         1.5560    0.9948    0.0000 Cl        1 <0>        0.00000
      2 C1         -1.9799   -1.7060    0.0000 C.ar      1 <0>        0.00000
      3 C2         -2.6473   -2.1909    0.0000 C.ar      1 <0>        0.00000
      4 C3         -2.3924   -2.9755    0.0000 C.ar      1 <0>        0.00000
      5 O1         -1.5674   -2.9755    0.0000 O.3       1 <0>        0.00000
      6 C4         -1.3125   -2.1909    0.0000 C.ar      1 <0>        0.00000
      7 C5         -0.5278   -1.9360    0.0000 C.2       1 <0>        0.00000
      8 O2          0.0853   -2.4880    0.0000 O.2       1 <0>        0.00000
      9 N1         -0.3563   -1.1290    0.0000 N.am      1 <0>        0.00000
     10 C6          0.4283   -0.8741    0.0000 C.ar      1 <0>        0.00000
     11 C7          1.0414   -1.4261    0.0000 C.ar      1 <0>        0.00000
     12 C8          1.8260   -1.1711    0.0000 C.ar      1 <0>        0.00000
     13 C9          1.9975   -0.3642    0.0000 C.ar      1 <0>        0.00000
     14 C10         1.3845    0.1879    0.0000 C.ar      1 <0>        0.00000
     15 C11         0.5998   -0.0671    0.0000 C.ar      1 <0>        0.00000
     16 N2         -0.0133    0.4850    0.0000 N.pl3     1 <0>        0.00000
     17 C12        -0.7979    0.2300    0.0000 C.3       1 <0>        0.00000
     18 C13        -1.4110    0.7820    0.0000 C.3       1 <0>        0.00000
     19 C14         0.1583    1.2919    0.0000 C.3       1 <0>        0.00000
     20 C15        -0.4548    1.8440    0.0000 C.3       1 <0>        0.00000
     21 N3         -1.2395    1.5890    0.0000 N.3       1 <0>        0.00000
     22 C16        -1.8525    2.1411    0.0000 C.3       1 <0>        0.00000
     23 C17        -1.6810    2.9480    0.0000 C.1       1 <0>        0.00000
     24 C18        -1.5095    3.7550    0.0000 C.1       1 <0>        0.00000
     25 Br1        -2.8773   -3.6430    0.0000 Br        1 <0>        0.00000
     26 H1         -1.9799   -1.7060    0.0000 H         1 <0>        0.00000
     27 H2         -2.6473   -2.1909    0.0000 H         1 <0>        0.00000
     28 H3         -0.3563   -1.1290    0.0000 H         1 <0>        0.00000
     29 H4          1.0414   -1.4261    0.0000 H         1 <0>        0.00000
     30 H5          1.8260   -1.1711    0.0000 H         1 <0>        0.00000
     31 H6          1.9975   -0.3642    0.0000 H         1 <0>        0.00000
     32 H7         -0.7979    0.2300    0.0000 H         1 <0>        0.00000
     33 H8         -0.7979    0.2300    0.0000 H         1 <0>        0.00000
     34 H9         -1.4110    0.7820    0.0000 H         1 <0>        0.00000
     35 H10        -1.4110    0.7820    0.0000 H         1 <0>        0.00000
     36 H11         0.1583    1.2919    0.0000 H         1 <0>        0.00000
     37 H12         0.1583    1.2919    0.0000 H         1 <0>        0.00000
     38 H13        -0.4548    1.8440    0.0000 H         1 <0>        0.00000
     39 H14        -0.4548    1.8440    0.0000 H         1 <0>        0.00000
     40 H15        -1.8525    2.1411    0.0000 H         1 <0>        0.00000
     41 H16        -1.8525    2.1411    0.0000 H         1 <0>        0.00000
     42 H17        -1.5095    3.7550    0.0000 H         1 <0>        0.00000
@<TRIPOS>BOND
     1    2    6 2
     2    2    3 1
     3    3    4 2
     4    4   25 1
     5    4    5 1
     6    5    6 1
     7    6    7 1
     8    7    9 am
     9    7    8 2
    10    9   10 1
    11   10   15 ar
    12   10   11 ar
    13   11   12 ar
    14   12   13 ar
    15   13   14 ar
    16    1   14 1
    17   14   15 ar
    18   15   16 1
    19   16   17 1
    20   17   18 1
    21   16   19 1
    22   19   20 1
    23   20   21 1
    24   18   21 1
    25   21   22 1
    26   22   23 1
    27   23   24 3
    28    2   26 1
    29    3   27 1
    30    9   28 1
    31   11   29 1
    32   12   30 1
    33   13   31 1
    34   17   32 1
    35   17   33 1
    36   18   34 1
    37   18   35 1
    38   19   36 1
    39   19   37 1
    40   20   38 1
    41   20   39 1
    42   22   40 1
    43   22   41 1
    44   24   42 1
@<TRIPOS>SUBSTRUCTURE
     1 <0>         1 GROUP 0 A     ****
@<TRIPOS>MOLECULE
*****
   75    78     1     0     0
SMALL
NO_CHARGES

@<TRIPOS>ATOM
      1 C1         -5.9471    9.0388    0.0000 C.3       1 <0>        0.00000
      2 C2         -5.3060    9.5580    0.0000 C.3       1 <0>        0.00000
      3 C3         -4.6648   10.0772    0.0000 C.3       1 <0>        0.00000
      4 C4         -5.8251   10.1991    0.0000 C.2       1 <0>        0.00000
      5 O1         -5.5295   10.9693    0.0000 O.2       1 <0>        0.00000
      6 O2         -6.6400   10.0701    0.0000 O.3       1 <0>        0.00000
      7 O3         -4.7868    8.9168    0.0000 O.3       1 <0>        0.00000
      8 N1         -5.0824    8.1466    0.0000 N.2       1 <0>        0.00000
      9 C5         -4.5632    7.5055    0.0000 C.2       1 <0>        0.00000
     10 C6         -4.8589    6.7353    0.0000 C.ar      1 <0>        0.00000
     11 N2         -4.4096    6.0434    0.0000 N.ar      1 <0>        0.00000
     12 C7         -4.9288    5.4022    0.0000 C.ar      1 <0>        0.00000
     13 S1         -5.6990    5.6979    0.0000 S.3       1 <0>        0.00000
     14 N3         -5.6558    6.5217    0.0000 N.ar      1 <0>        0.00000
     15 N4         -4.7152    4.6053    0.0000 N.pl3     1 <0>        0.00000
     16 C8         -3.7484    7.6345    0.0000 C.2       1 <0>        0.00000
     17 O4         -3.4527    8.4047    0.0000 O.2       1 <0>        0.00000
     18 N5         -3.2292    6.9934    0.0000 N.am      1 <0>        0.00000
     19 C9         -2.4144    7.1224    0.0000 C.3       1 <0>        0.00000
     20 C10        -1.7469    6.6375    0.0000 C.3       1 <0>        0.00000
     21 N6         -1.2620    7.3050    0.0000 N.am      1 <0>        0.00000
     22 C11        -1.9294    7.7899    0.0000 C.2       1 <0>        0.00000
     23 O5         -2.0585    8.6047    0.0000 O.2       1 <0>        0.00000
     24 C12        -0.4415    7.2187    0.0000 C.2       1 <0>        0.00000
     25 C13        -0.1060    6.4651    0.0000 C.2       1 <0>        0.00000
     26 C14        -0.5909    5.7976    0.0000 C.3       1 <0>        0.00000
     27 S2         -1.4114    5.8838    0.0000 S.3       1 <0>        0.00000
     28 C15         0.7144    6.3788    0.0000 C.3       1 <0>        0.00000
     29 N7          1.0500    5.6251    0.0000 N.ar      1 <0>        0.00000
     30 C16         1.8570    5.4536    0.0000 C.ar      1 <0>        0.00000
     31 C17         1.9432    4.6331    0.0000 C.ar      1 <0>        0.00000
     32 C18         1.1895    4.2976    0.0000 C.ar      1 <0>        0.00000
     33 N8          0.6375    4.9107    0.0000 N.pl3     1 <0>        0.00000
     34 C19        -0.1829    4.8244    0.0000 C.3       1 <0>        0.00000
     35 N9          1.0180    3.4906    0.0000 N.pl3     1 <0>        0.00000
     36 N10         2.6577    4.2206    0.0000 N.am      1 <0>        0.00000
     37 C20         3.3721    4.6331    0.0000 C.2       1 <0>        0.00000
     38 O6          3.3721    5.4581    0.0000 O.2       1 <0>        0.00000
     39 N11         4.0866    4.2206    0.0000 N.am      1 <0>        0.00000
     40 C21         4.8011    4.6331    0.0000 C.3       1 <0>        0.00000
     41 C22         5.5155    4.2206    0.0000 C.3       1 <0>        0.00000
     42 N12         6.2300    4.6331    0.0000 N.3       1 <0>        0.00000
     43 C23         0.0433    7.8862    0.0000 C.2       1 <0>        0.00000
     44 O7          0.8638    7.7999    0.0000 O.co2     1 <0>        0.00000
     45 O8         -0.2922    8.6398    0.0000 O.co2     1 <0>        0.00000
     46 H1         -5.9471    9.0388    0.0000 H         1 <0>        0.00000
     47 H2         -5.9471    9.0388    0.0000 H         1 <0>        0.00000
     48 H3         -5.9471    9.0388    0.0000 H         1 <0>        0.00000
     49 H4         -4.6648   10.0772    0.0000 H         1 <0>        0.00000
     50 H5         -4.6648   10.0772    0.0000 H         1 <0>        0.00000
     51 H6         -4.6648   10.0772    0.0000 H         1 <0>        0.00000
     52 H7         -6.6400   10.0701    0.0000 H         1 <0>        0.00000
     53 H8         -4.7152    4.6053    0.0000 H         1 <0>        0.00000
     54 H9         -4.7152    4.6053    0.0000 H         1 <0>        0.00000
     55 H10        -3.2292    6.9934    0.0000 H         1 <0>        0.00000
     56 H11        -2.4144    7.1224    0.0000 H         1 <0>        0.00000
     57 H12        -1.7469    6.6375    0.0000 H         1 <0>        0.00000
     58 H13        -0.5909    5.7976    0.0000 H         1 <0>        0.00000
     59 H14        -0.5909    5.7976    0.0000 H         1 <0>        0.00000
     60 H15         0.7144    6.3788    0.0000 H         1 <0>        0.00000
     61 H16         0.7144    6.3788    0.0000 H         1 <0>        0.00000
     62 H17         1.8570    5.4536    0.0000 H         1 <0>        0.00000
     63 H18        -0.1829    4.8244    0.0000 H         1 <0>        0.00000
     64 H19        -0.1829    4.8244    0.0000 H         1 <0>        0.00000
     65 H20        -0.1829    4.8244    0.0000 H         1 <0>        0.00000
     66 H21         1.0180    3.4906    0.0000 H         1 <0>        0.00000
     67 H22         1.0180    3.4906    0.0000 H         1 <0>        0.00000
     68 H23         2.6577    4.2206    0.0000 H         1 <0>        0.00000
     69 H24         4.0866    4.2206    0.0000 H         1 <0>        0.00000
     70 H25         4.8011    4.6331    0.0000 H         1 <0>        0.00000
     71 H26         4.8011    4.6331    0.0000 H         1 <0>        0.00000
     72 H27         5.5155    4.2206    0.0000 H         1 <0>        0.00000
     73 H28         5.5155    4.2206    0.0000 H         1 <0>        0.00000
     74 H29         6.2300    4.6331    0.0000 H         1 <0>        0.00000
     75 H30         6.2300    4.6331    0.0000 H         1 <0>        0.00000
@<TRIPOS>BOND
     1    1    2 1
     2    2    3 1
     3    2    4 1
     4    4    5 2
     5    4    6 1
     6    2    7 1
     7    7    8 1
     8    8    9 2
     9    9   10 1
    10   10   11 1
    11   11   12 2
    12   12   13 1
    13   13   14 1
    14   10   14 2
    15   12   15 1
    16    9   16 1
    17   16   17 2
    18   16   18 am
    19   18   19 1
    20   19   20 1
    21   20   21 1
    22   21   22 am
    23   19   22 1
    24   22   23 2
    25   21   24 1
    26   24   25 2
    27   25   26 1
    28   26   27 1
    29   20   27 1
    30   25   28 1
    31   28   29 1
    32   29   30 2
    33   30   31 1
    34   31   32 2
    35   32   33 1
    36   29   33 1
    37   33   34 1
    38   32   35 1
    39   31   36 1
    40   36   37 am
    41   37   38 2
    42   37   39 am
    43   39   40 1
    44   40   41 1
    45   41   42 1
    46   24   43 1
    47   43   44 2
    48   43   45 1
    49    1   46 1
    50    1   47 1
    51    1   48 1
    52    3   49 1
    53    3   50 1
    54    3   51 1
    55    6   52 1
    56   15   53 1
    57   15   54 1
    58   18   55 1
    59   19   56 1
    60   20   57 1
    61   26   58 1
    62   26   59 1
    63   28   60 1
    64   28   61 1
    65   30   62 1
    66   34   63 1
    67   34   64 1
    68   34   65 1
    69   35   66 1
    70   35   67 1
    71   36   68 1
    72   39   69 1
    73   40   70 1
    74   40   71 1
    75   41   72 1
    76   41   73 1
    77   42   74 1
    78   42   75 1
@<TRIPOS>SUBSTRUCTURE
     1 <0>         1 GROUP 0 A     ****
@<TRIPOS>MOLECULE
*****
   19    18     1     0     0
SMALL
NO_CHARGES

@<TRIPOS>ATOM
      1 C1          0.0000   -1.4289    0.0000 C.3       1 <0>        0.00000
      2 C2          0.8250   -1.4289    0.0000 C.3       1 <0>        0.00000
      3 N1          1.2375   -0.7145    0.0000 N.pl3     1 <0>        0.00000
      4 C3          2.0625   -0.7145    0.0000 C.3       1 <0>        0.00000
      5 C4          2.4750    0.0000    0.0000 C.3       1 <0>        0.00000
      6 C5          0.8250    0.0000    0.0000 C.2       1 <0>        0.00000
      7 S1          1.2375    0.7145    0.0000 S.3       1 <0>        0.00000
      8 S2          0.0000    0.0000    0.0000 S.2       1 <0>        0.00000
      9 H1          0.0000   -1.4289    0.0000 H         1 <0>        0.00000
     10 H2          0.0000   -1.4289    0.0000 H         1 <0>        0.00000
     11 H3          0.0000   -1.4289    0.0000 H         1 <0>        0.00000
     12 H4          0.8250   -1.4289    0.0000 H         1 <0>        0.00000
     13 H5          0.8250   -1.4289    0.0000 H         1 <0>        0.00000
     14 H6          2.0625   -0.7145    0.0000 H         1 <0>        0.00000
     15 H7          2.0625   -0.7145    0.0000 H         1 <0>        0.00000
     16 H8          2.4750    0.0000    0.0000 H         1 <0>        0.00000
     17 H9          2.4750    0.0000    0.0000 H         1 <0>        0.00000
     18 H10         2.4750    0.0000    0.0000 H         1 <0>        0.00000
     19 H11         1.2375    0.7145    0.0000 H         1 <0>        0.00000
@<TRIPOS>BOND
     1    1    2 1
     2    2    3 1
     3    3    4 1
     4    4    5 1
     5    3    6 1
     6    6    7 1
     7    6    8 2
     8    1    9 1
     9    1   10 1
    10    1   11 1
    11    2   12 1
    12    2   13 1
    13    4   14 1
    14    4   15 1
    15    5   16 1
    16    5   17 1
    17    5   18 1
    18    7   19 1
@<TRIPOS>SUBSTRUCTURE
     1 <0>         1 GROUP 0 A     ****
@<TRIPOS>MOLECULE
*****
   61    60     1     0     0
SMALL
NO_CHARGES

@<TRIPOS>ATOM
      1 C1         -2.4896    6.4611    0.0000 C.3       1 <0>        0.00000
      2 C2         -2.2608    5.6684    0.0000 C.3       1 <0>        0.00000
      3 C3         -2.8328    5.0740    0.0000 C.3       1 <0>        0.00000
      4 C4         -2.6040    4.2813    0.0000 C.3       1 <0>        0.00000
      5 C5         -3.1761    3.6868    0.0000 C.3       1 <0>        0.00000
      6 C6         -2.9473    2.8942    0.0000 C.2       1 <0>        0.00000
      7 C7         -3.5193    2.2997    0.0000 C.2       1 <0>        0.00000
      8 C8         -3.2905    1.5071    0.0000 C.3       1 <0>        0.00000
      9 C9         -2.4896    1.3089    0.0000 C.2       1 <0>        0.00000
     10 C10        -2.2608    0.5163    0.0000 C.2       1 <0>        0.00000
     11 C11        -1.4600    0.3182    0.0000 C.3       1 <0>        0.00000
     12 C12        -0.8879    0.9126    0.0000 C.2       1 <0>        0.00000
     13 C13        -0.0871    0.7145    0.0000 C.2       1 <0>        0.00000
     14 C14         0.4850    1.3089    0.0000 C.3       1 <0>        0.00000
     15 C15         1.2858    1.1108    0.0000 C.2       1 <0>        0.00000
     16 C16         1.5146    0.3182    0.0000 C.2       1 <0>        0.00000
     17 C17         2.3155    0.1200    0.0000 C.3       1 <0>        0.00000
     18 C18         2.8875    0.7145    0.0000 C.3       1 <0>        0.00000
     19 C19         3.6883    0.5163    0.0000 C.3       1 <0>        0.00000
     20 C20         4.2604    1.1108    0.0000 C.3       1 <0>        0.00000
     21 P1          5.0612    0.9126    0.0000 P.3       1 <0>        0.00000
     22 F1          4.8631    0.1118    0.0000 F         1 <0>        0.00000
     23 O1          5.2594    1.7135    0.0000 O.2       1 <0>        0.00000
     24 O2          5.8621    0.7145    0.0000 O.3       1 <0>        0.00000
     25 C21         6.4341    1.3089    0.0000 C.3       1 <0>        0.00000
     26 H1         -2.4896    6.4611    0.0000 H         1 <0>        0.00000
     27 H2         -2.4896    6.4611    0.0000 H         1 <0>        0.00000
     28 H3         -2.4896    6.4611    0.0000 H         1 <0>        0.00000
     29 H4         -2.2608    5.6684    0.0000 H         1 <0>        0.00000
     30 H5         -2.2608    5.6684    0.0000 H         1 <0>        0.00000
     31 H6         -2.8328    5.0740    0.0000 H         1 <0>        0.00000
     32 H7         -2.8328    5.0740    0.0000 H         1 <0>        0.00000
     33 H8         -2.6040    4.2813    0.0000 H         1 <0>        0.00000
     34 H9         -2.6040    4.2813    0.0000 H         1 <0>        0.00000
     35 H10        -3.1761    3.6868    0.0000 H         1 <0>        0.00000
     36 H11        -3.1761    3.6868    0.0000 H         1 <0>        0.00000
     37 H12        -2.9473    2.8942    0.0000 H         1 <0>        0.00000
     38 H13        -3.5193    2.2997    0.0000 H         1 <0>        0.00000
     39 H14        -3.2905    1.5071    0.0000 H         1 <0>        0.00000
     40 H15        -3.2905    1.5071    0.0000 H         1 <0>        0.00000
     41 H16        -2.4896    1.3089    0.0000 H         1 <0>        0.00000
     42 H17        -2.2608    0.5163    0.0000 H         1 <0>        0.00000
     43 H18        -1.4600    0.3182    0.0000 H         1 <0>        0.00000
     44 H19        -1.4600    0.3182    0.0000 H         1 <0>        0.00000
     45 H20        -0.8879    0.9126    0.0000 H         1 <0>        0.00000
     46 H21        -0.0871    0.7145    0.0000 H         1 <0>        0.00000
     47 H22         0.4850    1.3089    0.0000 H         1 <0>        0.00000
     48 H23         0.4850    1.3089    0.0000 H         1 <0>        0.00000
     49 H24         1.2858    1.1108    0.0000 H         1 <0>        0.00000
     50 H25         1.5146    0.3182    0.0000 H         1 <0>        0.00000
     51 H26         2.3155    0.1200    0.0000 H         1 <0>        0.00000
     52 H27         2.3155    0.1200    0.0000 H         1 <0>        0.00000
     53 H28         2.8875    0.7145    0.0000 H         1 <0>        0.00000
     54 H29         2.8875    0.7145    0.0000 H         1 <0>        0.00000
     55 H30         3.6883    0.5163    0.0000 H         1 <0>        0.00000
     56 H31         3.6883    0.5163    0.0000 H         1 <0>        0.00000
     57 H32         4.2604    1.1108    0.0000 H         1 <0>        0.00000
     58 H33         4.2604    1.1108    0.0000 H         1 <0>        0.00000
     59 H34         6.4341    1.3089    0.0000 H         1 <0>        0.00000
     60 H35         6.4341    1.3089    0.0000 H         1 <0>        0.00000
     61 H36         6.4341    1.3089    0.0000 H         1 <0>        0.00000
@<TRIPOS>BOND
     1    1    2 1
     2    2    3 1
     3    3    4 1
     4    4    5 1
     5    5    6 1
     6    6    7 2
     7    7    8 1
     8    8    9 1
     9    9   10 2
    10   10   11 1
    11   11   12 1
    12   12   13 2
    13   13   14 1
    14   14   15 1
    15   15   16 2
    16   16   17 1
    17   17   18 1
    18   18   19 1
    19   19   20 1
    20   20   21 1
    21   21   22 1
    22   21   23 2
    23   21   24 1
    24   24   25 1
    25    1   26 1
    26    1   27 1
    27    1   28 1
    28    2   29 1
    29    2   30 1
    30    3   31 1
    31    3   32 1
    32    4   33 1
    33    4   34 1
    34    5   35 1
    35    5   36 1
    36    6   37 1
    37    7   38 1
    38    8   39 1
    39    8   40 1
    40    9   41 1
    41   10   42 1
    42   11   43 1
    43   11   44 1
    44   12   45 1
    45   13   46 1
    46   14   47 1
    47   14   48 1
    48   15   49 1
    49   16   50 1
    50   17   51 1
    51   17   52 1
    52   18   53 1
    53   18   54 1
    54   19   55 1
    55   19   56 1
    56   20   57 1
    57   20   58 1
    58   25   59 1
    59   25   60 1
    60   25   61 1
@<TRIPOS>SUBSTRUCTURE
     1 <0>         1 GROUP 0 A     ****
@<TRIPOS>MOLECULE
*****
   83    87     1     0     0
SMALL
NO_CHARGES

@<TRIPOS>ATOM
      1 P1         -3.1853    0.8125    0.0000 P.3       1 <0>        0.00000
      2 O1         -3.1853   -0.0161    0.0000 O.3       1 <0>        0.00000
      3 O2         -3.8955    1.2213    0.0000 O.3       1 <0>        0.00000
      4 O3         -3.1853    1.6411    0.0000 O.2       1 <0>        0.00000
      5 O4          0.3766    1.2213    0.0000 O.3       1 <0>        0.00000
      6 O5         -0.3336   -0.0161    0.0000 O.2       1 <0>        0.00000
      7 O6         -0.3336   -2.5019    0.0000 O.3       1 <0>        0.00000
      8 O7          0.4950   -1.1783    0.0000 O.2       1 <0>        0.00000
      9 N1         -1.7432    2.4697    0.0000 N.pl3     1 <0>        0.00000
     10 N2         -0.3336   -1.6733    0.0000 N.pl3     1 <0>        0.00000
     11 N3          2.5290    0.8554    0.0000 N.pl3     1 <0>        0.00000
     12 C1         -2.4859    1.2213    0.0000 C.2       1 <0>        0.00000
     13 C2         -1.7432    0.8125    0.0000 C.3       1 <0>        0.00000
     14 C3         -1.0330    1.2213    0.0000 C.2       1 <0>        0.00000
     15 C4         -2.4859    2.0501    0.0000 C.2       1 <0>        0.00000
     16 C5         -1.7432   -0.0161    0.0000 C.ar      1 <0>        0.00000
     17 C6         -1.0330    2.0501    0.0000 C.2       1 <0>        0.00000
     18 C7         -0.3336    0.8125    0.0000 C.2       1 <0>        0.00000
     19 C8         -4.6381   -0.0161    0.0000 C.3       1 <0>        0.00000
     20 C9         -1.0330   -0.4358    0.0000 C.ar      1 <0>        0.00000
     21 C10        -3.9279   -0.4358    0.0000 C.3       1 <0>        0.00000
     22 C11        -4.6381    0.8125    0.0000 C.3       1 <0>        0.00000
     23 C12        -2.4859   -0.4358    0.0000 C.ar      1 <0>        0.00000
     24 C13        -3.1853    2.4697    0.0000 C.3       1 <0>        0.00000
     25 C14        -1.0330   -1.2644    0.0000 C.ar      1 <0>        0.00000
     26 C15        -0.3336    2.5019    0.0000 C.3       1 <0>        0.00000
     27 C16        -2.4859   -1.2644    0.0000 C.ar      1 <0>        0.00000
     28 C17        -1.7432   -1.6733    0.0000 C.ar      1 <0>        0.00000
     29 C18        -5.3806   -0.4358    0.0000 C.3       1 <0>        0.00000
     30 C19        -5.3376    0.3927    0.0000 C.3       1 <0>        0.00000
     31 C20         1.1192    0.8125    0.0000 C.3       1 <0>        0.00000
     32 C21         1.8186    1.2644    0.0000 C.3       1 <0>        0.00000
     33 C22         2.5290    0.0268    0.0000 C.ar      1 <0>        0.00000
     34 C23         3.2715    1.2213    0.0000 C.3       1 <0>        0.00000
     35 C24         3.9710    0.8554    0.0000 C.ar      1 <0>        0.00000
     36 C25         3.2284   -0.3928    0.0000 C.ar      1 <0>        0.00000
     37 C26         1.8186   -0.3928    0.0000 C.ar      1 <0>        0.00000
     38 C27         4.6813    1.2213    0.0000 C.ar      1 <0>        0.00000
     39 C28         3.9710    0.0268    0.0000 C.ar      1 <0>        0.00000
     40 C29         3.2284   -1.2214    0.0000 C.ar      1 <0>        0.00000
     41 C30         1.8186   -1.2214    0.0000 C.ar      1 <0>        0.00000
     42 C31         2.5290   -1.6303    0.0000 C.ar      1 <0>        0.00000
     43 C32         5.3806    0.8125    0.0000 C.ar      1 <0>        0.00000
     44 C33         4.6813   -0.3928    0.0000 C.ar      1 <0>        0.00000
     45 C34         5.3806    0.0268    0.0000 C.ar      1 <0>        0.00000
     46 H1         -1.7432    2.4697    0.0000 H         1 <0>        0.00000
     47 H2         -1.7432    0.8125    0.0000 H         1 <0>        0.00000
     48 H3         -1.0330   -0.4358    0.0000 H         1 <0>        0.00000
     49 H4         -3.9279   -0.4358    0.0000 H         1 <0>        0.00000
     50 H5         -3.9279   -0.4358    0.0000 H         1 <0>        0.00000
     51 H6         -4.6381    0.8125    0.0000 H         1 <0>        0.00000
     52 H7         -4.6381    0.8125    0.0000 H         1 <0>        0.00000
     53 H8         -2.4859   -0.4358    0.0000 H         1 <0>        0.00000
     54 H9         -3.1853    2.4697    0.0000 H         1 <0>        0.00000
     55 H10        -3.1853    2.4697    0.0000 H         1 <0>        0.00000
     56 H11        -3.1853    2.4697    0.0000 H         1 <0>        0.00000
     57 H12        -0.3336    2.5019    0.0000 H         1 <0>        0.00000
     58 H13        -0.3336    2.5019    0.0000 H         1 <0>        0.00000
     59 H14        -0.3336    2.5019    0.0000 H         1 <0>        0.00000
     60 H15        -2.4859   -1.2644    0.0000 H         1 <0>        0.00000
     61 H16        -1.7432   -1.6733    0.0000 H         1 <0>        0.00000
     62 H17        -5.3806   -0.4358    0.0000 H         1 <0>        0.00000
     63 H18        -5.3806   -0.4358    0.0000 H         1 <0>        0.00000
     64 H19        -5.3806   -0.4358    0.0000 H         1 <0>        0.00000
     65 H20        -5.3376    0.3927    0.0000 H         1 <0>        0.00000
     66 H21        -5.3376    0.3927    0.0000 H         1 <0>        0.00000
     67 H22        -5.3376    0.3927    0.0000 H         1 <0>        0.00000
     68 H23         1.1192    0.8125    0.0000 H         1 <0>        0.00000
     69 H24         1.1192    0.8125    0.0000 H         1 <0>        0.00000
     70 H25         1.8186    1.2644    0.0000 H         1 <0>        0.00000
     71 H26         1.8186    1.2644    0.0000 H         1 <0>        0.00000
     72 H27         3.2715    1.2213    0.0000 H         1 <0>        0.00000
     73 H28         3.2715    1.2213    0.0000 H         1 <0>        0.00000
     74 H29         3.2284   -0.3928    0.0000 H         1 <0>        0.00000
     75 H30         1.8186   -0.3928    0.0000 H         1 <0>        0.00000
     76 H31         4.6813    1.2213    0.0000 H         1 <0>        0.00000
     77 H32         3.9710    0.0268    0.0000 H         1 <0>        0.00000
     78 H33         3.2284   -1.2214    0.0000 H         1 <0>        0.00000
     79 H34         1.8186   -1.2214    0.0000 H         1 <0>        0.00000
     80 H35         2.5290   -1.6303    0.0000 H         1 <0>        0.00000
     81 H36         5.3806    0.8125    0.0000 H         1 <0>        0.00000
     82 H37         4.6813   -0.3928    0.0000 H         1 <0>        0.00000
     83 H38         5.3806    0.0268    0.0000 H         1 <0>        0.00000
@<TRIPOS>BOND
     1    1    2 1
     2    1    3 1
     3    1    4 2
     4    1   12 1
     5    2   21 1
     6    3   22 1
     7    5   18 1
     8    5   31 1
     9    6   18 2
    10    7   10 1
    11    8   10 2
    12    9   15 1
    13    9   17 1
    14   10   25 1
    15   11   32 1
    16   11   33 1
    17   11   34 1
    18   12   13 1
    19   12   15 2
    20   13   14 1
    21   13   16 1
    22   14   17 2
    23   14   18 1
    24   15   24 1
    25   16   20 ar
    26   16   23 ar
    27   17   26 1
    28   19   21 1
    29   19   22 1
    30   19   29 1
    31   19   30 1
    32   20   25 ar
    33   23   27 ar
    34   25   28 ar
    35   27   28 ar
    36   31   32 1
    37   33   36 ar
    38   33   37 ar
    39   34   35 1
    40   35   38 ar
    41   35   39 ar
    42   36   40 ar
    43   37   41 ar
    44   38   43 ar
    45   39   44 ar
    46   40   42 ar
    47   41   42 ar
    48   43   45 ar
    49   44   45 ar
    50    9   46 1
    51   13   47 1
    52   20   48 1
    53   21   49 1
    54   21   50 1
    55   22   51 1
    56   22   52 1
    57   23   53 1
    58   24   54 1
    59   24   55 1
    60   24   56 1
    61   26   57 1
    62   26   58 1
    63   26   59 1
    64   27   60 1
    65   28   61 1
    66   29   62 1
    67   29   63 1
    68   29   64 1
    69   30   65 1
    70   30   66 1
    71   30   67 1
    72   31   68 1
    73   31   69 1
    74   32   70 1
    75   32   71 1
    76   34   72 1
    77   34   73 1
    78   36   74 1
    79   37   75 1
    80   38   76 1
    81   39   77 1
    82   40   78 1
    83   41   79 1
    84   42   80 1
    85   43   81 1
    86   44   82 1
    87   45   83 1
@<TRIPOS>SUBSTRUCTURE
     1 <0>         1 GROUP 0 A     ****
@<TRIPOS>MOLECULE
1367
   26    27     1     0     0
SMALL
NO_CHARGES

@<TRIPOS>ATOM
      1 N1          4.1159    0.0242    0.0000 N.3       1 <0>        0.00000
      2 C1          3.8597   -0.7600    0.0000 C.3       1 <0>        0.00000
      3 C2          4.3412   -1.4239    0.0000 C.3       1 <0>        0.00000
      4 C3          3.8597   -2.0878    0.0000 C.3       1 <0>        0.00000
      5 C4          3.0791   -1.0114    0.0000 C.ar      1 <0>        0.00000
      6 C5          3.0791   -1.8364    0.0000 C.ar      1 <0>        0.00000
      7 C6          2.3645   -0.5989    0.0000 C.ar      1 <0>        0.00000
      8 C7          2.3645   -2.2489    0.0000 C.ar      1 <0>        0.00000
      9 C8          4.9232    0.1944    0.0000 C.3       1 <0>        0.00000
     10 C9          1.6500   -1.0114    0.0000 C.ar      1 <0>        0.00000
     11 C10         1.6500   -1.8364    0.0000 C.ar      1 <0>        0.00000
     12 C11         5.1795    0.9786    0.0000 C.1       1 <0>        0.00000
     13 C12         5.4359    1.7627    0.0000 C.1       1 <0>        0.00000
     14 H1          4.1159    0.0242    0.0000 H         1 <0>        0.00000
     15 H2          3.8597   -0.7600    0.0000 H         1 <0>        0.00000
     16 H3          4.3412   -1.4239    0.0000 H         1 <0>        0.00000
     17 H4          4.3412   -1.4239    0.0000 H         1 <0>        0.00000
     18 H5          3.8597   -2.0878    0.0000 H         1 <0>        0.00000
     19 H6          3.8597   -2.0878    0.0000 H         1 <0>        0.00000
     20 H7          2.3645   -0.5989    0.0000 H         1 <0>        0.00000
     21 H8          2.3645   -2.2489    0.0000 H         1 <0>        0.00000
     22 H9          4.9232    0.1944    0.0000 H         1 <0>        0.00000
     23 H10         4.9232    0.1944    0.0000 H         1 <0>        0.00000
     24 H11         1.6500   -1.0114    0.0000 H         1 <0>        0.00000
     25 H12         1.6500   -1.8364    0.0000 H         1 <0>        0.00000
     26 H13         5.4359    1.7627    0.0000 H         1 <0>        0.00000
@<TRIPOS>BOND
     1    1    2 1
     2    1    9 1
     3    2    3 1
     4    2    5 1
     5    3    4 1
     6    4    6 1
     7    5    6 ar
     8    5    7 ar
     9    6    8 ar
    10    7   10 ar
    11    8   11 ar
    12    9   12 1
    13   10   11 ar
    14   12   13 3
    15    1   14 1
    16    2   15 1
    17    3   16 1
    18    3   17 1
    19    4   18 1
    20    4   19 1
    21    7   20 1
    22    8   21 1
    23    9   22 1
    24    9   23 1
    25   10   24 1
    26   11   25 1
    27   13   26 1
@<TRIPOS>SUBSTRUCTURE
     1 <0>         1 GROUP 0 A     ****
@<TRIPOS>MOLECULE
697
   24    26     1     0     0
SMALL
NO_CHARGES

@<TRIPOS>ATOM
      1 Cl1         2.2413   -0.3751    0.0000 Cl        1 <0>        0.00000
      2 S1          5.6469   -1.2002    0.0000 S.3       1 <0>        0.00000
      3 N1          2.8695    1.6829    0.0000 N.pl3     1 <0>        0.00000
      4 N2          3.6703    0.4499    0.0000 N.pl3     1 <0>        0.00000
      5 N3          2.2021    0.5269    0.0000 N.2       1 <0>        0.00000
      6 N4          5.1654   -0.5363    0.0000 N.ar      1 <0>        0.00000
      7 N5          5.1654   -1.8640    0.0000 N.ar      1 <0>        0.00000
      8 C1          2.0625    1.8544    0.0000 C.3       1 <0>        0.00000
      9 C2          1.6500    1.1399    0.0000 C.3       1 <0>        0.00000
     10 C3          2.9558    0.8624    0.0000 C.2       1 <0>        0.00000
     11 C4          3.6703   -0.3751    0.0000 C.ar      1 <0>        0.00000
     12 C5          4.3847   -0.7876    0.0000 C.ar      1 <0>        0.00000
     13 C6          4.3847   -1.6127    0.0000 C.ar      1 <0>        0.00000
     14 C7          2.9558   -0.7876    0.0000 C.ar      1 <0>        0.00000
     15 C8          3.6703   -2.0252    0.0000 C.ar      1 <0>        0.00000
     16 C9          2.9558   -1.6127    0.0000 C.ar      1 <0>        0.00000
     17 H1          2.8695    1.6829    0.0000 H         1 <0>        0.00000
     18 H2          3.6703    0.4499    0.0000 H         1 <0>        0.00000
     19 H3          2.0625    1.8544    0.0000 H         1 <0>        0.00000
     20 H4          2.0625    1.8544    0.0000 H         1 <0>        0.00000
     21 H5          1.6500    1.1399    0.0000 H         1 <0>        0.00000
     22 H6          1.6500    1.1399    0.0000 H         1 <0>        0.00000
     23 H7          3.6703   -2.0252    0.0000 H         1 <0>        0.00000
     24 H8          2.9558   -1.6127    0.0000 H         1 <0>        0.00000
@<TRIPOS>BOND
     1    1   14 1
     2    2    6 1
     3    2    7 1
     4    3    8 1
     5    3   10 1
     6    4   10 1
     7    4   11 1
     8    5    9 1
     9    5   10 2
    10    6   12 2
    11    7   13 2
    12    8    9 1
    13   11   12 ar
    14   11   14 ar
    15   12   13 ar
    16   13   15 ar
    17   14   16 ar
    18   15   16 ar
    19    3   17 1
    20    4   18 1
    21    8   19 1
    22    8   20 1
    23    9   21 1
    24    9   22 1
    25   15   23 1
    26   16   24 1
@<TRIPOS>SUBSTRUCTURE
     1 <0>         1 GROUP 0 A     ****
@<TRIPOS>MOLECULE
*****
   48    50     1     0     0
SMALL
NO_CHARGES

@<TRIPOS>ATOM
      1 O1         -2.8579   -0.8250    0.0000 O.3       1 <0>        0.00000
      2 C1         -2.1434   -1.2375    0.0000 C.2       1 <0>        0.00000
      3 O2         -1.4289   -0.8250    0.0000 O.2       1 <0>        0.00000
      4 C2         -2.1434   -2.0625    0.0000 C.2       1 <0>        0.00000
      5 N1         -1.4289   -2.4750    0.0000 N.2       1 <0>        0.00000
      6 C3         -0.7145   -2.0625    0.0000 C.2       1 <0>        0.00000
      7 O3         -0.7145   -1.2375    0.0000 O.2       1 <0>        0.00000
      8 C4          0.0000   -2.4750    0.0000 C.3       1 <0>        0.00000
      9 C5          0.0000   -3.3000    0.0000 C.3       1 <0>        0.00000
     10 S1         -0.7145   -3.7125    0.0000 S.3       1 <0>        0.00000
     11 C6          0.7145   -2.0625    0.0000 C.3       1 <0>        0.00000
     12 C7          1.4289   -2.4750    0.0000 C.3       1 <0>        0.00000
     13 C8          2.1434   -2.0625    0.0000 C.ar      1 <0>        0.00000
     14 C9          2.1434   -1.2375    0.0000 C.ar      1 <0>        0.00000
     15 C10         2.8579   -0.8250    0.0000 C.ar      1 <0>        0.00000
     16 C11         3.5724   -1.2375    0.0000 C.ar      1 <0>        0.00000
     17 C12         3.5724   -2.0625    0.0000 C.ar      1 <0>        0.00000
     18 C13         2.8579   -2.4750    0.0000 C.ar      1 <0>        0.00000
     19 C14        -2.8579   -2.4750    0.0000 C.ar      1 <0>        0.00000
     20 C15        -2.9441   -3.2955    0.0000 C.ar      1 <0>        0.00000
     21 C16        -3.7511   -3.4670    0.0000 C.ar      1 <0>        0.00000
     22 C17        -4.1636   -2.7525    0.0000 C.ar      1 <0>        0.00000
     23 C18        -4.9841   -2.6663    0.0000 C.3       1 <0>        0.00000
     24 N2         -5.3196   -1.9126    0.0000 N.pl3     1 <0>        0.00000
     25 C19        -6.1266   -1.7411    0.0000 C.ar      1 <0>        0.00000
     26 N3         -6.2128   -0.9206    0.0000 N.ar      1 <0>        0.00000
     27 N4         -5.4592   -0.5851    0.0000 N.ar      1 <0>        0.00000
     28 N5         -4.9071   -1.1982    0.0000 N.ar      1 <0>        0.00000
     29 S2         -3.6116   -2.1394    0.0000 S.3       1 <0>        0.00000
     30 H1         -2.8579   -0.8250    0.0000 H         1 <0>        0.00000
     31 H2          0.0000   -2.4750    0.0000 H         1 <0>        0.00000
     32 H3          0.0000   -3.3000    0.0000 H         1 <0>        0.00000
     33 H4          0.0000   -3.3000    0.0000 H         1 <0>        0.00000
     34 H5         -0.7145   -3.7125    0.0000 H         1 <0>        0.00000
     35 H6          0.7145   -2.0625    0.0000 H         1 <0>        0.00000
     36 H7          0.7145   -2.0625    0.0000 H         1 <0>        0.00000
     37 H8          1.4289   -2.4750    0.0000 H         1 <0>        0.00000
     38 H9          1.4289   -2.4750    0.0000 H         1 <0>        0.00000
     39 H10         2.1434   -1.2375    0.0000 H         1 <0>        0.00000
     40 H11         2.8579   -0.8250    0.0000 H         1 <0>        0.00000
     41 H12         3.5724   -1.2375    0.0000 H         1 <0>        0.00000
     42 H13         3.5724   -2.0625    0.0000 H         1 <0>        0.00000
     43 H14         2.8579   -2.4750    0.0000 H         1 <0>        0.00000
     44 H15        -2.9441   -3.2955    0.0000 H         1 <0>        0.00000
     45 H16        -3.7511   -3.4670    0.0000 H         1 <0>        0.00000
     46 H17        -4.9841   -2.6663    0.0000 H         1 <0>        0.00000
     47 H18        -4.9841   -2.6663    0.0000 H         1 <0>        0.00000
     48 H19        -6.1266   -1.7411    0.0000 H         1 <0>        0.00000
@<TRIPOS>BOND
     1    1    2 1
     2    2    3 2
     3    2    4 1
     4    4    5 2
     5    5    6 1
     6    6    7 2
     7    6    8 1
     8    8    9 1
     9    9   10 1
    10    8   11 1
    11   11   12 1
    12   12   13 1
    13   13   14 ar
    14   14   15 ar
    15   15   16 ar
    16   16   17 ar
    17   17   18 ar
    18   13   18 ar
    19    4   19 1
    20   19   20 2
    21   20   21 1
    22   21   22 2
    23   22   23 1
    24   23   24 1
    25   24   25 1
    26   25   26 2
    27   26   27 1
    28   27   28 2
    29   24   28 1
    30   22   29 1
    31   19   29 1
    32    1   30 1
    33    8   31 1
    34    9   32 1
    35    9   33 1
    36   10   34 1
    37   11   35 1
    38   11   36 1
    39   12   37 1
    40   12   38 1
    41   14   39 1
    42   15   40 1
    43   16   41 1
    44   17   42 1
    45   18   43 1
    46   20   44 1
    47   21   45 1
    48   23   46 1
    49   23   47 1
    50   25   48 1
@<TRIPOS>SUBSTRUCTURE
     1 <0>         1 GROUP 0 A     ****
@<TRIPOS>MOLECULE
U1K
   32    32     1     0     0
SMALL
NO_CHARGES

@<TRIPOS>ATOM
      1 O1          1.4699    2.6628    0.0000 O.3       1 <0>        0.00000
      2 C1          1.2984    1.8558    0.0000 C.2       1 <0>        0.00000
      3 O2          1.9115    1.3037    0.0000 O.2       1 <0>        0.00000
      4 C2          0.5138    1.6008    0.0000 C.3       1 <0>        0.00000
      5 C3          0.3423    0.7939    0.0000 C.3       1 <0>        0.00000
      6 C4         -0.4424    0.5389    0.0000 C.ar      1 <0>        0.00000
      7 C5         -0.6973   -0.2457    0.0000 C.ar      1 <0>        0.00000
      8 S1         -1.5223   -0.2457    0.0000 S.3       1 <0>        0.00000
      9 N1         -1.7772    0.5389    0.0000 N.ar      1 <0>        0.00000
     10 C6         -1.1098    1.0239    0.0000 C.ar      1 <0>        0.00000
     11 O3         -1.1098    1.8489    0.0000 O.3       1 <0>        0.00000
     12 C7         -0.2124   -0.9131    0.0000 C.3       1 <0>        0.00000
     13 C8          0.2725   -1.5806    0.0000 C.3       1 <0>        0.00000
     14 C9         -0.8798   -1.3981    0.0000 C.3       1 <0>        0.00000
     15 C10         0.4551   -0.4282    0.0000 C.3       1 <0>        0.00000
     16 N2         -0.0993    2.1529    0.0000 N.4       1 <0>        0.00000
     17 H1          0.9477    1.2101    0.0000 H         1 <0>        0.00000
     18 H2          1.4699    2.6628    0.0000 H         1 <0>        0.00000
     19 H3          0.3423    0.7939    0.0000 H         1 <0>        0.00000
     20 H4          0.3423    0.7939    0.0000 H         1 <0>        0.00000
     21 H5          0.2725   -1.5806    0.0000 H         1 <0>        0.00000
     22 H6          0.2725   -1.5806    0.0000 H         1 <0>        0.00000
     23 H7          0.2725   -1.5806    0.0000 H         1 <0>        0.00000
     24 H8         -0.8798   -1.3981    0.0000 H         1 <0>        0.00000
     25 H9         -0.8798   -1.3981    0.0000 H         1 <0>        0.00000
     26 H10        -0.8798   -1.3981    0.0000 H         1 <0>        0.00000
     27 H11         0.4551   -0.4282    0.0000 H         1 <0>        0.00000
     28 H12         0.4551   -0.4282    0.0000 H         1 <0>        0.00000
     29 H13         0.4551   -0.4282    0.0000 H         1 <0>        0.00000
     30 H14        -0.0993    2.1529    0.0000 H         1 <0>        0.00000
     31 H15        -0.0993    2.1529    0.0000 H         1 <0>        0.00000
     32 H16        -0.0993    2.1529    0.0000 H         1 <0>        0.00000
@<TRIPOS>BOND
     1    1    2 1
     2    2    3 2
     3    2    4 1
     4    4    5 1
     5    4   16 1
     6    4   17 1
     7    5    6 1
     8    6    7 2
     9    6   10 1
    10    7    8 1
    11    7   12 1
    12    8    9 1
    13    9   10 2
    14   10   11 1
    15   12   13 1
    16   12   14 1
    17   12   15 1
    18    1   18 1
    19    5   19 1
    20    5   20 1
    21   13   21 1
    22   13   22 1
    23   13   23 1
    24   14   24 1
    25   14   25 1
    26   14   26 1
    27   15   27 1
    28   15   28 1
    29   15   29 1
    30   16   30 1
    31   16   31 1
    32   16   32 1
@<TRIPOS>SUBSTRUCTURE
     1 <0>         1 GROUP 0 A     ****
@<TRIPOS>MOLECULE
492
   21    22     1     0     0
SMALL
NO_CHARGES

@<TRIPOS>ATOM
      1 N1         -1.4181    2.1558    0.0000 N.3       1 <0>        0.00000
      2 C1         -0.7036    1.7433    0.0000 C.3       1 <0>        0.00000
      3 C2         -0.7036    0.9183    0.0000 C.ar      1 <0>        0.00000
      4 S1         -0.0362    0.4333    0.0000 S.3       1 <0>        0.00000
      5 C3         -0.2911   -0.3513    0.0000 C.ar      1 <0>        0.00000
      6 C4         -1.1161   -0.3513    0.0000 C.ar      1 <0>        0.00000
      7 C5         -1.3710    0.4333    0.0000 C.ar      1 <0>        0.00000
      8 C6          0.1938   -1.0187    0.0000 C.ar      1 <0>        0.00000
      9 S2         -0.0611   -1.8033    0.0000 S.3       1 <0>        0.00000
     10 C7          0.6063   -2.2883    0.0000 C.ar      1 <0>        0.00000
     11 C8          1.2738   -1.8033    0.0000 C.ar      1 <0>        0.00000
     12 C9          1.0188   -1.0187    0.0000 C.ar      1 <0>        0.00000
     13 H1         -1.4181    2.1558    0.0000 H         1 <0>        0.00000
     14 H2         -1.4181    2.1558    0.0000 H         1 <0>        0.00000
     15 H3         -0.7036    1.7433    0.0000 H         1 <0>        0.00000
     16 H4         -0.7036    1.7433    0.0000 H         1 <0>        0.00000
     17 H5         -1.1161   -0.3513    0.0000 H         1 <0>        0.00000
     18 H6         -1.3710    0.4333    0.0000 H         1 <0>        0.00000
     19 H7          0.6063   -2.2883    0.0000 H         1 <0>        0.00000
     20 H8          1.2738   -1.8033    0.0000 H         1 <0>        0.00000
     21 H9          1.0188   -1.0187    0.0000 H         1 <0>        0.00000
@<TRIPOS>BOND
     1    1    2 1
     2    2    3 1
     3    3    4 1
     4    4    5 1
     5    5    8 1
     6    5    6 2
     7    6    7 1
     8    3    7 2
     9    8   12 2
    10    8    9 1
    11    9   10 1
    12   10   11 2
    13   11   12 1
    14    1   13 1
    15    1   14 1
    16    2   15 1
    17    2   16 1
    18    6   17 1
    19    7   18 1
    20   10   19 1
    21   11   20 1
    22   12   21 1
@<TRIPOS>SUBSTRUCTURE
     1 <0>         1 GROUP 0 A     ****
@<TRIPOS>MOLECULE
*****
  112   113     1     0     0
SMALL
NO_CHARGES

@<TRIPOS>ATOM
      1 C1         11.7355  -11.9464    0.0000 C.3       1 <0>        0.00000
      2 C2         11.4654  -11.1668    0.0000 C.3       1 <0>        0.00000
      3 C3         12.0055  -10.5432    0.0000 C.3       1 <0>        0.00000
      4 C4         11.7355   -9.7637    0.0000 C.3       1 <0>        0.00000
      5 C5         12.2756   -9.1400    0.0000 C.3       1 <0>        0.00000
      6 C6         12.0055   -8.3605    0.0000 C.3       1 <0>        0.00000
      7 N1         11.1954   -8.2046    0.0000 N.3       1 <0>        0.00000
      8 N2         10.9253   -7.4250    0.0000 N.3       1 <0>        0.00000
      9 C7         10.1152   -7.2691    0.0000 C.3       1 <0>        0.00000
     10 C8          9.8452   -6.4895    0.0000 C.3       1 <0>        0.00000
     11 C9         10.3852   -5.8659    0.0000 C.3       1 <0>        0.00000
     12 C10        10.1152   -5.0863    0.0000 C.3       1 <0>        0.00000
     13 C11         9.3051   -4.9304    0.0000 C.3       1 <0>        0.00000
     14 C12         9.0350   -4.1509    0.0000 C.3       1 <0>        0.00000
     15 C13         9.0350   -6.3336    0.0000 C.2       1 <0>        0.00000
     16 O1          8.4949   -6.9573    0.0000 O.2       1 <0>        0.00000
     17 N3          8.7650   -5.5541    0.0000 N.am      1 <0>        0.00000
     18 C14         7.9548   -5.3982    0.0000 C.3       1 <0>        0.00000
     19 C15         7.4148   -6.0218    0.0000 C.3       1 <0>        0.00000
     20 C16         7.6848   -6.8014    0.0000 C.3       1 <0>        0.00000
     21 C17         7.1447   -7.4250    0.0000 C.3       1 <0>        0.00000
     22 C18         7.4148   -8.2046    0.0000 C.3       1 <0>        0.00000
     23 N4          6.8747   -8.8282    0.0000 N.3       1 <0>        0.00000
     24 C19         7.6848   -4.6186    0.0000 C.2       1 <0>        0.00000
     25 O2          8.2249   -3.9950    0.0000 O.2       1 <0>        0.00000
     26 N5          6.8747   -4.4627    0.0000 N.am      1 <0>        0.00000
     27 C20         6.6046   -3.6832    0.0000 C.ar      1 <0>        0.00000
     28 C21         5.7945   -3.5272    0.0000 C.ar      1 <0>        0.00000
     29 C22         5.5244   -2.7477    0.0000 C.ar      1 <0>        0.00000
     30 C23         6.0645   -2.1240    0.0000 C.ar      1 <0>        0.00000
     31 C24         6.8747   -2.2800    0.0000 C.ar      1 <0>        0.00000
     32 C25         7.1447   -3.0595    0.0000 C.ar      1 <0>        0.00000
     33 C26        13.0857   -9.2959    0.0000 C.2       1 <0>        0.00000
     34 O3         13.6258   -8.6723    0.0000 O.2       1 <0>        0.00000
     35 N6         13.3557  -10.0755    0.0000 N.am      1 <0>        0.00000
     36 C27        14.1659  -10.2314    0.0000 C.3       1 <0>        0.00000
     37 C28        14.7060   -9.6077    0.0000 C.3       1 <0>        0.00000
     38 C29        14.4359   -8.8282    0.0000 C.3       1 <0>        0.00000
     39 C30        14.9760   -8.2046    0.0000 C.3       1 <0>        0.00000
     40 C31        14.7060   -7.4250    0.0000 C.3       1 <0>        0.00000
     41 N7         15.2460   -6.8014    0.0000 N.3       1 <0>        0.00000
     42 C32        14.4359  -11.0109    0.0000 C.2       1 <0>        0.00000
     43 O4         13.8958  -11.6346    0.0000 O.2       1 <0>        0.00000
     44 N8         15.2460  -11.1668    0.0000 N.am      1 <0>        0.00000
     45 C33        15.5161  -11.9464    0.0000 C.ar      1 <0>        0.00000
     46 C34        16.3262  -12.1023    0.0000 C.ar      1 <0>        0.00000
     47 C35        16.5963  -12.8819    0.0000 C.ar      1 <0>        0.00000
     48 C36        16.0562  -13.5055    0.0000 C.ar      1 <0>        0.00000
     49 C37        15.2460  -13.3496    0.0000 C.ar      1 <0>        0.00000
     50 C38        14.9760  -12.5700    0.0000 C.ar      1 <0>        0.00000
     51 H1         11.7355  -11.9464    0.0000 H         1 <0>        0.00000
     52 H2         11.7355  -11.9464    0.0000 H         1 <0>        0.00000
     53 H3         11.7355  -11.9464    0.0000 H         1 <0>        0.00000
     54 H4         11.4654  -11.1668    0.0000 H         1 <0>        0.00000
     55 H5         11.4654  -11.1668    0.0000 H         1 <0>        0.00000
     56 H6         12.0055  -10.5432    0.0000 H         1 <0>        0.00000
     57 H7         12.0055  -10.5432    0.0000 H         1 <0>        0.00000
     58 H8         11.7355   -9.7637    0.0000 H         1 <0>        0.00000
     59 H9         11.7355   -9.7637    0.0000 H         1 <0>        0.00000
     60 H10        12.2756   -9.1400    0.0000 H         1 <0>        0.00000
     61 H11        12.0055   -8.3605    0.0000 H         1 <0>        0.00000
     62 H12        12.0055   -8.3605    0.0000 H         1 <0>        0.00000
     63 H13        11.1954   -8.2046    0.0000 H         1 <0>        0.00000
     64 H14        10.9253   -7.4250    0.0000 H         1 <0>        0.00000
     65 H15        10.1152   -7.2691    0.0000 H         1 <0>        0.00000
     66 H16        10.1152   -7.2691    0.0000 H         1 <0>        0.00000
     67 H17         9.8452   -6.4895    0.0000 H         1 <0>        0.00000
     68 H18        10.3852   -5.8659    0.0000 H         1 <0>        0.00000
     69 H19        10.3852   -5.8659    0.0000 H         1 <0>        0.00000
     70 H20        10.1152   -5.0863    0.0000 H         1 <0>        0.00000
     71 H21        10.1152   -5.0863    0.0000 H         1 <0>        0.00000
     72 H22         9.3051   -4.9304    0.0000 H         1 <0>        0.00000
     73 H23         9.3051   -4.9304    0.0000 H         1 <0>        0.00000
     74 H24         9.0350   -4.1509    0.0000 H         1 <0>        0.00000
     75 H25         9.0350   -4.1509    0.0000 H         1 <0>        0.00000
     76 H26         9.0350   -4.1509    0.0000 H         1 <0>        0.00000
     77 H27         8.7650   -5.5541    0.0000 H         1 <0>        0.00000
     78 H28         7.9548   -5.3982    0.0000 H         1 <0>        0.00000
     79 H29         7.4148   -6.0218    0.0000 H         1 <0>        0.00000
     80 H30         7.4148   -6.0218    0.0000 H         1 <0>        0.00000
     81 H31         7.6848   -6.8014    0.0000 H         1 <0>        0.00000
     82 H32         7.6848   -6.8014    0.0000 H         1 <0>        0.00000
     83 H33         7.1447   -7.4250    0.0000 H         1 <0>        0.00000
     84 H34         7.1447   -7.4250    0.0000 H         1 <0>        0.00000
     85 H35         7.4148   -8.2046    0.0000 H         1 <0>        0.00000
     86 H36         7.4148   -8.2046    0.0000 H         1 <0>        0.00000
     87 H37         6.8747   -8.8282    0.0000 H         1 <0>        0.00000
     88 H38         6.8747   -8.8282    0.0000 H         1 <0>        0.00000
     89 H39         6.8747   -4.4627    0.0000 H         1 <0>        0.00000
     90 H40         5.7945   -3.5272    0.0000 H         1 <0>        0.00000
     91 H41         5.5244   -2.7477    0.0000 H         1 <0>        0.00000
     92 H42         6.0645   -2.1240    0.0000 H         1 <0>        0.00000
     93 H43         6.8747   -2.2800    0.0000 H         1 <0>        0.00000
     94 H44         7.1447   -3.0595    0.0000 H         1 <0>        0.00000
     95 H45        13.3557  -10.0755    0.0000 H         1 <0>        0.00000
     96 H46        14.1659  -10.2314    0.0000 H         1 <0>        0.00000
     97 H47        14.7060   -9.6077    0.0000 H         1 <0>        0.00000
     98 H48        14.7060   -9.6077    0.0000 H         1 <0>        0.00000
     99 H49        14.4359   -8.8282    0.0000 H         1 <0>        0.00000
    100 H50        14.4359   -8.8282    0.0000 H         1 <0>        0.00000
    101 H51        14.9760   -8.2046    0.0000 H         1 <0>        0.00000
    102 H52        14.9760   -8.2046    0.0000 H         1 <0>        0.00000
    103 H53        14.7060   -7.4250    0.0000 H         1 <0>        0.00000
    104 H54        14.7060   -7.4250    0.0000 H         1 <0>        0.00000
    105 H55        15.2460   -6.8014    0.0000 H         1 <0>        0.00000
    106 H56        15.2460   -6.8014    0.0000 H         1 <0>        0.00000
    107 H57        15.2460  -11.1668    0.0000 H         1 <0>        0.00000
    108 H58        16.3262  -12.1023    0.0000 H         1 <0>        0.00000
    109 H59        16.5963  -12.8819    0.0000 H         1 <0>        0.00000
    110 H60        16.0562  -13.5055    0.0000 H         1 <0>        0.00000
    111 H61        15.2460  -13.3496    0.0000 H         1 <0>        0.00000
    112 H62        14.9760  -12.5700    0.0000 H         1 <0>        0.00000
@<TRIPOS>BOND
     1    1    2 1
     2    2    3 1
     3    3    4 1
     4    4    5 1
     5    5    6 1
     6    6    7 1
     7    7    8 1
     8    8    9 1
     9    9   10 1
    10   10   11 1
    11   11   12 1
    12   12   13 1
    13   13   14 1
    14   10   15 1
    15   15   16 2
    16   15   17 am
    17   17   18 1
    18   18   19 1
    19   19   20 1
    20   20   21 1
    21   21   22 1
    22   22   23 1
    23   18   24 1
    24   24   25 2
    25   24   26 am
    26   26   27 1
    27   27   28 ar
    28   28   29 ar
    29   29   30 ar
    30   30   31 ar
    31   31   32 ar
    32   27   32 ar
    33    5   33 1
    34   33   34 2
    35   33   35 am
    36   35   36 1
    37   36   37 1
    38   37   38 1
    39   38   39 1
    40   39   40 1
    41   40   41 1
    42   36   42 1
    43   42   43 2
    44   42   44 am
    45   44   45 1
    46   45   46 ar
    47   46   47 ar
    48   47   48 ar
    49   48   49 ar
    50   49   50 ar
    51   45   50 ar
    52    1   51 1
    53    1   52 1
    54    1   53 1
    55    2   54 1
    56    2   55 1
    57    3   56 1
    58    3   57 1
    59    4   58 1
    60    4   59 1
    61    5   60 1
    62    6   61 1
    63    6   62 1
    64    7   63 1
    65    8   64 1
    66    9   65 1
    67    9   66 1
    68   10   67 1
    69   11   68 1
    70   11   69 1
    71   12   70 1
    72   12   71 1
    73   13   72 1
    74   13   73 1
    75   14   74 1
    76   14   75 1
    77   14   76 1
    78   17   77 1
    79   18   78 1
    80   19   79 1
    81   19   80 1
    82   20   81 1
    83   20   82 1
    84   21   83 1
    85   21   84 1
    86   22   85 1
    87   22   86 1
    88   23   87 1
    89   23   88 1
    90   26   89 1
    91   28   90 1
    92   29   91 1
    93   30   92 1
    94   31   93 1
    95   32   94 1
    96   35   95 1
    97   36   96 1
    98   37   97 1
    99   37   98 1
   100   38   99 1
   101   38  100 1
   102   39  101 1
   103   39  102 1
   104   40  103 1
   105   40  104 1
   106   41  105 1
   107   41  106 1
   108   44  107 1
   109   46  108 1
   110   47  109 1
   111   48  110 1
   112   49  111 1
   113   50  112 1
@<TRIPOS>SUBSTRUCTURE
     1 <0>         1 GROUP 0 A     ****
@<TRIPOS>MOLECULE
STF
   26    27     1     0     0
SMALL
NO_CHARGES

@<TRIPOS>ATOM
      1 C1         -0.9464   -0.6357    0.0000 C.3       1 <0>        0.00000
      2 S1         -0.2789   -1.1206    0.0000 S.3       1 <0>        0.00000
      3 C2         -0.5339   -1.9053    0.0000 C.2       1 <0>        0.00000
      4 N1         -1.3589   -1.9053    0.0000 N.2       1 <0>        0.00000
      5 C3         -1.6138   -1.1206    0.0000 C.2       1 <0>        0.00000
      6 O1         -2.3984   -0.8657    0.0000 O.2       1 <0>        0.00000
      7 S2         -0.0489   -2.5727    0.0000 S.3       1 <0>        0.00000
      8 C4         -0.9464    0.1893    0.0000 C.3       1 <0>        0.00000
      9 C5         -0.2319    0.6018    0.0000 C.ar      1 <0>        0.00000
     10 C6         -0.2319    1.4268    0.0000 C.ar      1 <0>        0.00000
     11 C7          0.4826    1.8393    0.0000 C.ar      1 <0>        0.00000
     12 C8          1.1970    1.4268    0.0000 C.ar      1 <0>        0.00000
     13 C9          1.1970    0.6018    0.0000 C.ar      1 <0>        0.00000
     14 C10         0.4826    0.1893    0.0000 C.ar      1 <0>        0.00000
     15 C11         1.9115    1.8393    0.0000 C.3       1 <0>        0.00000
     16 F1          2.6260    2.2518    0.0000 F         1 <0>        0.00000
     17 F2          2.3240    1.1248    0.0000 F         1 <0>        0.00000
     18 F3          1.4990    2.5537    0.0000 F         1 <0>        0.00000
     19 H1         -0.4261   -0.3706    0.0000 H         1 <0>        0.00000
     20 H2         -0.0489   -2.5727    0.0000 H         1 <0>        0.00000
     21 H3         -0.9464    0.1893    0.0000 H         1 <0>        0.00000
     22 H4         -0.9464    0.1893    0.0000 H         1 <0>        0.00000
     23 H5         -0.2319    1.4268    0.0000 H         1 <0>        0.00000
     24 H6          0.4826    1.8393    0.0000 H         1 <0>        0.00000
     25 H7          1.1970    0.6018    0.0000 H         1 <0>        0.00000
     26 H8          0.4826    0.1893    0.0000 H         1 <0>        0.00000
@<TRIPOS>BOND
     1    1    2 1
     2    1    5 1
     3    1    8 1
     4    1   19 1
     5    2    3 1
     6    3    4 2
     7    3    7 1
     8    4    5 1
     9    5    6 2
    10    8    9 1
    11    9   10 ar
    12    9   14 ar
    13   10   11 ar
    14   11   12 ar
    15   12   13 ar
    16   12   15 1
    17   13   14 ar
    18   15   16 1
    19   15   17 1
    20   15   18 1
    21    7   20 1
    22    8   21 1
    23    8   22 1
    24   10   23 1
    25   11   24 1
    26   13   25 1
    27   14   26 1
@<TRIPOS>SUBSTRUCTURE
     1 <0>         1 GROUP 0 A     ****
@<TRIPOS>MOLECULE
*****
   98   102     1     0     0
SMALL
NO_CHARGES

@<TRIPOS>ATOM
      1 C1          4.0654   -0.7573    0.0000 C.3       1 <0>        0.00000
      2 C2          4.6084   -1.3784    0.0000 C.3       1 <0>        0.00000
      3 C3          4.3420   -2.1593    0.0000 C.3       1 <0>        0.00000
      4 C4          5.4178   -1.2187    0.0000 C.3       1 <0>        0.00000
      5 C5          5.9608   -1.8398    0.0000 C.2       1 <0>        0.00000
      6 O1          5.6944   -2.6207    0.0000 O.2       1 <0>        0.00000
      7 O2          6.7702   -1.6801    0.0000 O.3       1 <0>        0.00000
      8 C6          7.0366   -0.8993    0.0000 C.3       1 <0>        0.00000
      9 C7          6.4936   -0.2782    0.0000 C.3       1 <0>        0.00000
     10 O3          5.6842   -0.4379    0.0000 O.3       1 <0>        0.00000
     11 C8          5.1412    0.1832    0.0000 C.3       1 <0>        0.00000
     12 C9          4.3318    0.0235    0.0000 C.3       1 <0>        0.00000
     13 C10         3.7888    0.6446    0.0000 C.3       1 <0>        0.00000
     14 C11         3.5217   -0.1360    0.0000 C.3       1 <0>        0.00000
     15 C12         2.9702    0.4845    0.0000 C.3       1 <0>        0.00000
     16 C13         2.7817   -0.3640    0.0000 C.3       1 <0>        0.00000
     17 C14         1.9499   -0.5631    0.0000 C.3       1 <0>        0.00000
     18 C15         1.3468    0.0605    0.0000 C.3       1 <0>        0.00000
     19 C16         1.8864    0.5686    0.0000 C.3       1 <0>        0.00000
     20 C17         2.3575    1.1189    0.0000 C.3       1 <0>        0.00000
     21 C18         2.6973    1.9012    0.0000 C.3       1 <0>        0.00000
     22 C19         3.5166    2.0581    0.0000 C.3       1 <0>        0.00000
     23 C20         4.0552    1.4254    0.0000 C.3       1 <0>        0.00000
     24 C21         4.8646    1.5851    0.0000 C.3       1 <0>        0.00000
     25 C22         5.4076    0.9640    0.0000 C.3       1 <0>        0.00000
     26 C23         4.7332    2.3996    0.0000 C.2       1 <0>        0.00000
     27 O4          3.9622    2.6930    0.0000 O.3       1 <0>        0.00000
     28 O5          5.3729    2.9206    0.0000 O.2       1 <0>        0.00000
     29 C24         5.4663    2.1494    0.0000 C.2       1 <0>        0.00000
     30 O6          6.2560    1.9105    0.0000 O.3       1 <0>        0.00000
     31 O7          5.7865    2.9098    0.0000 O.2       1 <0>        0.00000
     32 C25         1.5239    1.4560    0.0000 C.3       1 <0>        0.00000
     33 O8          1.3460    2.2616    0.0000 O.3       1 <0>        0.00000
     34 C26         0.9271    0.8174    0.0000 C.2       1 <0>        0.00000
     35 C27         0.1083    0.9184    0.0000 C.2       1 <0>        0.00000
     36 O9          6.7600    0.5026    0.0000 O.3       1 <0>        0.00000
     37 C28         7.5694    0.6623    0.0000 C.3       1 <0>        0.00000
     38 C29         7.8358    1.4431    0.0000 C.3       1 <0>        0.00000
     39 O10         7.2928    2.0642    0.0000 O.3       1 <0>        0.00000
     40 O11         7.5591    2.8450    0.0000 O.3       1 <0>        0.00000
     41 C30         8.1124    0.0412    0.0000 C.3       1 <0>        0.00000
     42 O12         8.9218    0.2009    0.0000 O.3       1 <0>        0.00000
     43 S1          9.4648   -0.4202    0.0000 S.o2      1 <0>        0.00000
     44 O13         8.8437   -0.9632    0.0000 O.3       1 <0>        0.00000
     45 O14        10.0859    0.1228    0.0000 O.2       1 <0>        0.00000
     46 O15        10.0078   -1.0413    0.0000 O.2       1 <0>        0.00000
     47 C31         7.8460   -0.7396    0.0000 C.3       1 <0>        0.00000
     48 O16         8.3890   -1.3607    0.0000 O.3       1 <0>        0.00000
     49 S2          8.1226   -2.1415    0.0000 S.o2      1 <0>        0.00000
     50 O17         7.3418   -1.8752    0.0000 O.3       1 <0>        0.00000
     51 O18         8.9034   -2.4079    0.0000 O.2       1 <0>        0.00000
     52 O19         7.8562   -2.9224    0.0000 O.2       1 <0>        0.00000
     53 H1          4.0654   -0.7573    0.0000 H         1 <0>        0.00000
     54 H2          4.0654   -0.7573    0.0000 H         1 <0>        0.00000
     55 H3          4.0654   -0.7573    0.0000 H         1 <0>        0.00000
     56 H4          4.6084   -1.3784    0.0000 H         1 <0>        0.00000
     57 H5          4.3420   -2.1593    0.0000 H         1 <0>        0.00000
     58 H6          4.3420   -2.1593    0.0000 H         1 <0>        0.00000
     59 H7          4.3420   -2.1593    0.0000 H         1 <0>        0.00000
     60 H8          5.4178   -1.2187    0.0000 H         1 <0>        0.00000
     61 H9          5.4178   -1.2187    0.0000 H         1 <0>        0.00000
     62 H10         7.0366   -0.8993    0.0000 H         1 <0>        0.00000
     63 H11         6.4936   -0.2782    0.0000 H         1 <0>        0.00000
     64 H12         5.1412    0.1832    0.0000 H         1 <0>        0.00000
     65 H13         4.3318    0.0235    0.0000 H         1 <0>        0.00000
     66 H14         4.3318    0.0235    0.0000 H         1 <0>        0.00000
     67 H15         3.5217   -0.1360    0.0000 H         1 <0>        0.00000
     68 H16         3.5217   -0.1360    0.0000 H         1 <0>        0.00000
     69 H17         3.5217   -0.1360    0.0000 H         1 <0>        0.00000
     70 H18         2.9702    0.4845    0.0000 H         1 <0>        0.00000
     71 H19         2.7817   -0.3640    0.0000 H         1 <0>        0.00000
     72 H20         2.7817   -0.3640    0.0000 H         1 <0>        0.00000
     73 H21         1.9499   -0.5631    0.0000 H         1 <0>        0.00000
     74 H22         1.9499   -0.5631    0.0000 H         1 <0>        0.00000
     75 H23         1.3468    0.0605    0.0000 H         1 <0>        0.00000
     76 H24         1.8864    0.5686    0.0000 H         1 <0>        0.00000
     77 H25         1.8864    0.5686    0.0000 H         1 <0>        0.00000
     78 H26         2.6973    1.9012    0.0000 H         1 <0>        0.00000
     79 H27         2.6973    1.9012    0.0000 H         1 <0>        0.00000
     80 H28         3.5166    2.0581    0.0000 H         1 <0>        0.00000
     81 H29         3.5166    2.0581    0.0000 H         1 <0>        0.00000
     82 H30         4.0552    1.4254    0.0000 H         1 <0>        0.00000
     83 H31         5.4076    0.9640    0.0000 H         1 <0>        0.00000
     84 H32         5.4076    0.9640    0.0000 H         1 <0>        0.00000
     85 H33         3.9622    2.6930    0.0000 H         1 <0>        0.00000
     86 H34         6.2560    1.9105    0.0000 H         1 <0>        0.00000
     87 H35         1.5239    1.4560    0.0000 H         1 <0>        0.00000
     88 H36         1.3460    2.2616    0.0000 H         1 <0>        0.00000
     89 H37         0.1083    0.9184    0.0000 H         1 <0>        0.00000
     90 H38         0.1083    0.9184    0.0000 H         1 <0>        0.00000
     91 H39         7.5694    0.6623    0.0000 H         1 <0>        0.00000
     92 H40         7.8358    1.4431    0.0000 H         1 <0>        0.00000
     93 H41         7.8358    1.4431    0.0000 H         1 <0>        0.00000
     94 H42         7.5591    2.8450    0.0000 H         1 <0>        0.00000
     95 H43         8.1124    0.0412    0.0000 H         1 <0>        0.00000
     96 H44         8.8437   -0.9632    0.0000 H         1 <0>        0.00000
     97 H45         7.8460   -0.7396    0.0000 H         1 <0>        0.00000
     98 H46         7.3418   -1.8752    0.0000 H         1 <0>        0.00000
@<TRIPOS>BOND
     1    1    2 1
     2    2    3 1
     3    2    4 1
     4    4    5 1
     5    5    6 2
     6    5    7 1
     7    7    8 1
     8    8    9 1
     9    9   10 1
    10   10   11 1
    11   11   12 1
    12   12   13 1
    13   13   14 1
    14   13   15 1
    15   15   16 1
    16   16   17 1
    17   17   18 1
    18   18   19 1
    19   19   20 1
    20   15   20 1
    21   20   21 1
    22   21   22 1
    23   22   23 1
    24   13   23 1
    25   23   24 1
    26   24   25 1
    27   11   25 1
    28   24   26 1
    29   26   27 1
    30   26   28 2
    31   24   29 1
    32   29   30 1
    33   29   31 2
    34   20   32 1
    35   32   33 1
    36   32   34 1
    37   18   34 1
    38   34   35 2
    39    9   36 1
    40   36   37 1
    41   37   38 1
    42   38   39 1
    43   39   40 1
    44   37   41 1
    45   41   42 1
    46   42   43 1
    47   43   44 1
    48   43   45 2
    49   43   46 2
    50   41   47 1
    51    8   47 1
    52   47   48 1
    53   48   49 1
    54   49   50 1
    55   49   51 2
    56   49   52 2
    57    1   53 1
    58    1   54 1
    59    1   55 1
    60    2   56 1
    61    3   57 1
    62    3   58 1
    63    3   59 1
    64    4   60 1
    65    4   61 1
    66    8   62 1
    67    9   63 1
    68   11   64 1
    69   12   65 1
    70   12   66 1
    71   14   67 1
    72   14   68 1
    73   14   69 1
    74   15   70 1
    75   16   71 1
    76   16   72 1
    77   17   73 1
    78   17   74 1
    79   18   75 1
    80   19   76 1
    81   19   77 1
    82   21   78 1
    83   21   79 1
    84   22   80 1
    85   22   81 1
    86   23   82 1
    87   25   83 1
    88   25   84 1
    89   27   85 1
    90   30   86 1
    91   32   87 1
    92   33   88 1
    93   35   89 1
    94   35   90 1
    95   37   91 1
    96   38   92 1
    97   38   93 1
    98   40   94 1
    99   41   95 1
   100   44   96 1
   101   47   97 1
   102   50   98 1
@<TRIPOS>SUBSTRUCTURE
     1 <0>         1 GROUP 0 A     ****
@<TRIPOS>MOLECULE
*****
   50    55     1     0     0
SMALL
NO_CHARGES

@<TRIPOS>ATOM
      1 O1          0.1489   -0.8979    0.0000 O.2       1 <0>        0.00000
      2 C1         -0.6580   -0.7263    0.0000 C.ar      1 <0>        0.00000
      3 N1         -1.2101   -1.3394    0.0000 N.am      1 <0>        0.00000
      4 N2         -2.0170   -1.1679    0.0000 N.am      1 <0>        0.00000
      5 C2         -2.2720   -0.3833    0.0000 C.ar      1 <0>        0.00000
      6 O2         -3.0790   -0.2117    0.0000 O.2       1 <0>        0.00000
      7 C3         -1.7199    0.2298    0.0000 C.ar      1 <0>        0.00000
      8 C4         -1.9749    1.0144    0.0000 C.ar      1 <0>        0.00000
      9 C5         -1.4229    1.6275    0.0000 C.ar      1 <0>        0.00000
     10 C6         -0.6159    1.4560    0.0000 C.ar      1 <0>        0.00000
     11 C7         -0.3609    0.6714    0.0000 C.ar      1 <0>        0.00000
     12 C8         -0.9130    0.0583    0.0000 C.ar      1 <0>        0.00000
     13 N3         -1.6778    2.4122    0.0000 N.ar      1 <0>        0.00000
     14 N4         -2.4624    2.6671    0.0000 N.ar      1 <0>        0.00000
     15 C9         -2.4624    3.4921    0.0000 C.ar      1 <0>        0.00000
     16 C10        -3.1299    3.9770    0.0000 C.2       1 <0>        0.00000
     17 C11        -3.8835    3.6415    0.0000 C.2       1 <0>        0.00000
     18 C12        -4.5510    4.1264    0.0000 C.ar      1 <0>        0.00000
     19 C13        -5.3046    3.7908    0.0000 C.ar      1 <0>        0.00000
     20 C14        -5.9721    4.2758    0.0000 C.ar      1 <0>        0.00000
     21 C15        -5.8858    5.0962    0.0000 C.ar      1 <0>        0.00000
     22 C16        -5.1322    5.4318    0.0000 C.ar      1 <0>        0.00000
     23 C17        -4.4647    4.9469    0.0000 C.ar      1 <0>        0.00000
     24 N5         -1.6778    3.7470    0.0000 N.ar      1 <0>        0.00000
     25 N6         -1.1929    3.0796    0.0000 N.pl3     1 <0>        0.00000
     26 C18        -0.3679    3.0796    0.0000 C.ar      1 <0>        0.00000
     27 N7          0.1171    2.4122    0.0000 N.ar      1 <0>        0.00000
     28 C19         0.9017    2.6671    0.0000 C.ar      1 <0>        0.00000
     29 C20         0.9017    3.4921    0.0000 C.ar      1 <0>        0.00000
     30 S1          0.1171    3.7470    0.0000 S.3       1 <0>        0.00000
     31 C21         1.6161    3.9046    0.0000 C.ar      1 <0>        0.00000
     32 C22         2.3306    3.4921    0.0000 C.ar      1 <0>        0.00000
     33 C23         2.3306    2.6671    0.0000 C.ar      1 <0>        0.00000
     34 C24         1.6161    2.2546    0.0000 C.ar      1 <0>        0.00000
     35 H1         -1.2101   -1.3394    0.0000 H         1 <0>        0.00000
     36 H2         -2.0170   -1.1679    0.0000 H         1 <0>        0.00000
     37 H3         -1.9749    1.0144    0.0000 H         1 <0>        0.00000
     38 H4         -0.6159    1.4560    0.0000 H         1 <0>        0.00000
     39 H5         -0.3609    0.6714    0.0000 H         1 <0>        0.00000
     40 H6         -3.1299    3.9770    0.0000 H         1 <0>        0.00000
     41 H7         -3.8835    3.6415    0.0000 H         1 <0>        0.00000
     42 H8         -5.3046    3.7908    0.0000 H         1 <0>        0.00000
     43 H9         -5.9721    4.2758    0.0000 H         1 <0>        0.00000
     44 H10        -5.8858    5.0962    0.0000 H         1 <0>        0.00000
     45 H11        -5.1322    5.4318    0.0000 H         1 <0>        0.00000
     46 H12        -4.4647    4.9469    0.0000 H         1 <0>        0.00000
     47 H13         1.6161    3.9046    0.0000 H         1 <0>        0.00000
     48 H14         2.3306    3.4921    0.0000 H         1 <0>        0.00000
     49 H15         2.3306    2.6671    0.0000 H         1 <0>        0.00000
     50 H16         1.6161    2.2546    0.0000 H         1 <0>        0.00000
@<TRIPOS>BOND
     1    1    2 2
     2    2    3 am
     3    3    4 1
     4    4    5 am
     5    5    6 2
     6    5    7 1
     7    7    8 ar
     8    8    9 ar
     9    9   10 ar
    10   10   11 ar
    11   11   12 ar
    12    2   12 1
    13    7   12 ar
    14    9   13 1
    15   13   14 2
    16   14   15 1
    17   15   16 1
    18   16   17 2
    19   17   18 1
    20   18   19 ar
    21   19   20 ar
    22   20   21 ar
    23   21   22 ar
    24   22   23 ar
    25   18   23 ar
    26   15   24 2
    27   24   25 1
    28   13   25 1
    29   25   26 1
    30   26   27 2
    31   27   28 1
    32   28   29 ar
    33   29   30 1
    34   26   30 1
    35   29   31 ar
    36   31   32 ar
    37   32   33 ar
    38   33   34 ar
    39   28   34 ar
    40    3   35 1
    41    4   36 1
    42    8   37 1
    43   10   38 1
    44   11   39 1
    45   16   40 1
    46   17   41 1
    47   19   42 1
    48   20   43 1
    49   21   44 1
    50   22   45 1
    51   23   46 1
    52   31   47 1
    53   32   48 1
    54   33   49 1
    55   34   50 1
@<TRIPOS>SUBSTRUCTURE
     1 <0>         1 GROUP 0 A     ****
@<TRIPOS>MOLECULE
4819
   39    39     1     0     0
SMALL
NO_CHARGES

@<TRIPOS>ATOM
      1 Cl1         2.5024    6.7296    0.0000 Cl        1 <0>        0.00000
      2 S1          1.7282    2.0975    0.0000 S.3       1 <0>        0.00000
      3 N1          3.2434    2.9180    0.0000 N.pl3     1 <0>        0.00000
      4 N2          3.9579    0.8555    0.0000 N.3       1 <0>        0.00000
      5 N3          4.6724    2.9180    0.0000 N.ar      1 <0>        0.00000
      6 C1          3.2434    2.0930    0.0000 C.3       1 <0>        0.00000
      7 C2          3.9579    1.6805    0.0000 C.3       1 <0>        0.00000
      8 C3          2.5289    3.3305    0.0000 C.3       1 <0>        0.00000
      9 C4          3.9579    3.3305    0.0000 C.ar      1 <0>        0.00000
     10 C5          1.8145    2.9180    0.0000 C.ar      1 <0>        0.00000
     11 C6          3.2434    0.4430    0.0000 C.3       1 <0>        0.00000
     12 C7          4.6724    0.4430    0.0000 C.3       1 <0>        0.00000
     13 C8          3.9579    4.1555    0.0000 C.ar      1 <0>        0.00000
     14 C9          1.0607    3.2536    0.0000 C.ar      1 <0>        0.00000
     15 C10         0.5087    2.6405    0.0000 C.ar      1 <0>        0.00000
     16 C11         4.6724    4.5680    0.0000 C.ar      1 <0>        0.00000
     17 C12         0.9212    1.9260    0.0000 C.ar      1 <0>        0.00000
     18 C13         5.3869    3.3305    0.0000 C.ar      1 <0>        0.00000
     19 C14         5.3869    4.1555    0.0000 C.ar      1 <0>        0.00000
     20 H1          2.5024    6.7296    0.0000 H         1 <0>        0.00000
     21 H2          3.2434    2.0930    0.0000 H         1 <0>        0.00000
     22 H3          3.2434    2.0930    0.0000 H         1 <0>        0.00000
     23 H4          3.9579    1.6805    0.0000 H         1 <0>        0.00000
     24 H5          3.9579    1.6805    0.0000 H         1 <0>        0.00000
     25 H6          2.5289    3.3305    0.0000 H         1 <0>        0.00000
     26 H7          2.5289    3.3305    0.0000 H         1 <0>        0.00000
     27 H8          3.2434    0.4430    0.0000 H         1 <0>        0.00000
     28 H9          3.2434    0.4430    0.0000 H         1 <0>        0.00000
     29 H10         3.2434    0.4430    0.0000 H         1 <0>        0.00000
     30 H11         4.6724    0.4430    0.0000 H         1 <0>        0.00000
     31 H12         4.6724    0.4430    0.0000 H         1 <0>        0.00000
     32 H13         4.6724    0.4430    0.0000 H         1 <0>        0.00000
     33 H14         3.9579    4.1555    0.0000 H         1 <0>        0.00000
     34 H15         1.0607    3.2536    0.0000 H         1 <0>        0.00000
     35 H16         0.5087    2.6405    0.0000 H         1 <0>        0.00000
     36 H17         4.6724    4.5680    0.0000 H         1 <0>        0.00000
     37 H18         0.9212    1.9260    0.0000 H         1 <0>        0.00000
     38 H19         5.3869    3.3305    0.0000 H         1 <0>        0.00000
     39 H20         5.3869    4.1555    0.0000 H         1 <0>        0.00000
@<TRIPOS>BOND
     1    2   10 1
     2    2   17 1
     3    3    6 1
     4    3    8 1
     5    3    9 1
     6    4    7 1
     7    4   11 1
     8    4   12 1
     9    5    9 ar
    10    5   18 ar
    11    6    7 1
    12    8   10 1
    13    9   13 ar
    14   10   14 2
    15   13   16 ar
    16   14   15 1
    17   15   17 2
    18   16   19 ar
    19   18   19 ar
    20    1   20 1
    21    6   21 1
    22    6   22 1
    23    7   23 1
    24    7   24 1
    25    8   25 1
    26    8   26 1
    27   11   27 1
    28   11   28 1
    29   11   29 1
    30   12   30 1
    31   12   31 1
    32   12   32 1
    33   13   33 1
    34   14   34 1
    35   15   35 1
    36   16   36 1
    37   17   37 1
    38   18   38 1
    39   19   39 1
@<TRIPOS>SUBSTRUCTURE
     1 <0>         1 GROUP 0 A     ****
@<TRIPOS>MOLECULE
717
   48    51     1     0     0
SMALL
NO_CHARGES

@<TRIPOS>ATOM
      1 O1          6.6263    1.5550    0.0000 O.3       1 <0>        0.00000
      2 O2          1.6500   -1.9996    0.0000 O.2       1 <0>        0.00000
      3 C1          6.0993   -0.3064    0.0000 C.3       1 <0>        0.00000
      4 C2          6.0993    0.5186    0.0000 C.3       1 <0>        0.00000
      5 C3          5.3849   -0.7189    0.0000 C.3       1 <0>        0.00000
      6 C4          4.6703   -0.3064    0.0000 C.3       1 <0>        0.00000
      7 C5          5.3849    0.9311    0.0000 C.3       1 <0>        0.00000
      8 C6          6.8799    0.7700    0.0000 C.3       1 <0>        0.00000
      9 C7          6.8799   -0.5579    0.0000 C.3       1 <0>        0.00000
     10 C8          4.6703    0.5186    0.0000 C.3       1 <0>        0.00000
     11 C9          3.9196   -0.7246    0.0000 C.3       1 <0>        0.00000
     12 C10         7.3614    0.1061    0.0000 C.3       1 <0>        0.00000
     13 C11         5.3981   -1.5782    0.0000 C.3       1 <0>        0.00000
     14 C12         6.0993    1.3436    0.0000 C.3       1 <0>        0.00000
     15 C13         4.6572   -2.0136    0.0000 C.3       1 <0>        0.00000
     16 C14         3.9130   -1.5839    0.0000 C.2       1 <0>        0.00000
     17 C15         3.1550   -0.2592    0.0000 C.3       1 <0>        0.00000
     18 C16         7.5482    1.2538    0.0000 C.1       1 <0>        0.00000
     19 C17         2.3729   -0.6948    0.0000 C.3       1 <0>        0.00000
     20 C18         3.1413   -2.0374    0.0000 C.2       1 <0>        0.00000
     21 C19         2.3660   -1.5899    0.0000 C.2       1 <0>        0.00000
     22 C20         8.2165    1.7375    0.0000 C.1       1 <0>        0.00000
     23 H1          6.1691   -0.9628    0.0000 H         1 <0>        0.00000
     24 H2          5.9589   -1.0445    0.0000 H         1 <0>        0.00000
     25 H3          5.2420    0.0236    0.0000 H         1 <0>        0.00000
     26 H4          3.9323   -0.0647    0.0000 H         1 <0>        0.00000
     27 H5          6.6263    1.5550    0.0000 H         1 <0>        0.00000
     28 H6          5.3849    0.9311    0.0000 H         1 <0>        0.00000
     29 H7          5.3849    0.9311    0.0000 H         1 <0>        0.00000
     30 H8          6.8799   -0.5579    0.0000 H         1 <0>        0.00000
     31 H9          6.8799   -0.5579    0.0000 H         1 <0>        0.00000
     32 H10         4.6703    0.5186    0.0000 H         1 <0>        0.00000
     33 H11         4.6703    0.5186    0.0000 H         1 <0>        0.00000
     34 H12         7.3614    0.1061    0.0000 H         1 <0>        0.00000
     35 H13         7.3614    0.1061    0.0000 H         1 <0>        0.00000
     36 H14         5.3981   -1.5782    0.0000 H         1 <0>        0.00000
     37 H15         5.3981   -1.5782    0.0000 H         1 <0>        0.00000
     38 H16         6.0993    1.3436    0.0000 H         1 <0>        0.00000
     39 H17         6.0993    1.3436    0.0000 H         1 <0>        0.00000
     40 H18         6.0993    1.3436    0.0000 H         1 <0>        0.00000
     41 H19         4.6572   -2.0136    0.0000 H         1 <0>        0.00000
     42 H20         4.6572   -2.0136    0.0000 H         1 <0>        0.00000
     43 H21         3.1550   -0.2592    0.0000 H         1 <0>        0.00000
     44 H22         3.1550   -0.2592    0.0000 H         1 <0>        0.00000
     45 H23         2.3729   -0.6948    0.0000 H         1 <0>        0.00000
     46 H24         2.3729   -0.6948    0.0000 H         1 <0>        0.00000
     47 H25         3.1413   -2.0374    0.0000 H         1 <0>        0.00000
     48 H26         8.2165    1.7375    0.0000 H         1 <0>        0.00000
@<TRIPOS>BOND
     1    1    8 1
     2    2   21 2
     3    3    4 1
     4    3    5 1
     5    3    9 1
     6    3   23 1
     7    4    7 1
     8    4    8 1
     9    4   14 1
    10    5    6 1
    11    5   13 1
    12    5   24 1
    13    6   10 1
    14    6   11 1
    15    6   25 1
    16    7   10 1
    17    8   12 1
    18    8   18 1
    19    9   12 1
    20   11   16 1
    21   11   17 1
    22   11   26 1
    23   13   15 1
    24   15   16 1
    25   16   20 2
    26   17   19 1
    27   18   22 3
    28   19   21 1
    29   20   21 1
    30    1   27 1
    31    7   28 1
    32    7   29 1
    33    9   30 1
    34    9   31 1
    35   10   32 1
    36   10   33 1
    37   12   34 1
    38   12   35 1
    39   13   36 1
    40   13   37 1
    41   14   38 1
    42   14   39 1
    43   14   40 1
    44   15   41 1
    45   15   42 1
    46   17   43 1
    47   17   44 1
    48   19   45 1
    49   19   46 1
    50   20   47 1
    51   22   48 1
@<TRIPOS>SUBSTRUCTURE
     1 <0>         1 GROUP 0 A     ****
@<TRIPOS>MOLECULE
*****
   81    84     1     0     0
SMALL
NO_CHARGES

@<TRIPOS>ATOM
      1 C1          1.5971   -3.0967    0.0000 C.3       1 <0>        0.00000
      2 C2          0.8826   -2.6842    0.0000 C.2       1 <0>        0.00000
      3 O1          0.1681   -3.0967    0.0000 O.2       1 <0>        0.00000
      4 N1          0.8826   -1.8592    0.0000 N.am      1 <0>        0.00000
      5 C3          1.5971   -1.4467    0.0000 C.3       1 <0>        0.00000
      6 C4          1.5971   -0.6217    0.0000 C.3       1 <0>        0.00000
      7 C5          0.8826   -0.2092    0.0000 C.ar      1 <0>        0.00000
      8 C6          0.1681   -0.6217    0.0000 C.ar      1 <0>        0.00000
      9 C7         -0.5463   -0.2092    0.0000 C.ar      1 <0>        0.00000
     10 C8         -0.5463    0.6158    0.0000 C.ar      1 <0>        0.00000
     11 O2         -1.2608    1.0283    0.0000 O.3       1 <0>        0.00000
     12 C9         -1.2608    1.8533    0.0000 C.3       1 <0>        0.00000
     13 C10        -1.9753    2.2658    0.0000 C.2       1 <0>        0.00000
     14 O3         -1.9753    3.0908    0.0000 O.3       1 <0>        0.00000
     15 O4         -2.6897    1.8533    0.0000 O.2       1 <0>        0.00000
     16 C11         0.1681    1.0283    0.0000 C.ar      1 <0>        0.00000
     17 C12         0.8826    0.6158    0.0000 C.ar      1 <0>        0.00000
     18 P1          0.1681    1.8533    0.0000 P.3       1 <0>        0.00000
     19 O5          0.1681    2.6783    0.0000 O.3       1 <0>        0.00000
     20 O6          0.9931    1.8533    0.0000 O.3       1 <0>        0.00000
     21 O7         -0.6569    1.8533    0.0000 O.2       1 <0>        0.00000
     22 C13         2.3116   -1.8592    0.0000 C.2       1 <0>        0.00000
     23 O8          3.0260   -1.4467    0.0000 O.2       1 <0>        0.00000
     24 N2          2.3116   -2.6842    0.0000 N.am      1 <0>        0.00000
     25 C14         3.0260   -3.0967    0.0000 C.3       1 <0>        0.00000
     26 C15         3.7077   -2.6319    0.0000 C.3       1 <0>        0.00000
     27 C16         4.4960   -2.8751    0.0000 C.3       1 <0>        0.00000
     28 C17         4.7974   -3.6431    0.0000 C.3       1 <0>        0.00000
     29 C18         4.3849   -4.3575    0.0000 C.3       1 <0>        0.00000
     30 N3          3.5691   -4.4805    0.0000 N.am      1 <0>        0.00000
     31 C19         3.3260   -5.2688    0.0000 C.3       1 <0>        0.00000
     32 C20         3.8871   -5.8736    0.0000 C.ar      1 <0>        0.00000
     33 C21         4.6914   -5.6900    0.0000 C.ar      1 <0>        0.00000
     34 C22         5.2526   -6.2948    0.0000 C.ar      1 <0>        0.00000
     35 C23         5.0094   -7.0831    0.0000 C.ar      1 <0>        0.00000
     36 C24         4.2051   -7.2667    0.0000 C.ar      1 <0>        0.00000
     37 C25         3.6439   -6.6620    0.0000 C.ar      1 <0>        0.00000
     38 C26         5.5705   -7.6879    0.0000 C.ar      1 <0>        0.00000
     39 C27         6.3749   -7.5043    0.0000 C.ar      1 <0>        0.00000
     40 C28         6.9360   -8.1091    0.0000 C.ar      1 <0>        0.00000
     41 C29         6.6928   -8.8974    0.0000 C.ar      1 <0>        0.00000
     42 C30         5.8885   -9.0810    0.0000 C.ar      1 <0>        0.00000
     43 C31         5.3274   -8.4763    0.0000 C.ar      1 <0>        0.00000
     44 C32         2.9644   -3.9193    0.0000 C.2       1 <0>        0.00000
     45 O9          2.1964   -4.2208    0.0000 O.2       1 <0>        0.00000
     46 H1          1.5971   -3.0967    0.0000 H         1 <0>        0.00000
     47 H2          1.5971   -3.0967    0.0000 H         1 <0>        0.00000
     48 H3          1.5971   -3.0967    0.0000 H         1 <0>        0.00000
     49 H4          0.8826   -1.8592    0.0000 H         1 <0>        0.00000
     50 H5          1.5971   -1.4467    0.0000 H         1 <0>        0.00000
     51 H6          1.5971   -0.6217    0.0000 H         1 <0>        0.00000
     52 H7          1.5971   -0.6217    0.0000 H         1 <0>        0.00000
     53 H8          0.1681   -0.6217    0.0000 H         1 <0>        0.00000
     54 H9         -0.5463   -0.2092    0.0000 H         1 <0>        0.00000
     55 H10        -1.2608    1.8533    0.0000 H         1 <0>        0.00000
     56 H11        -1.2608    1.8533    0.0000 H         1 <0>        0.00000
     57 H12        -1.9753    3.0908    0.0000 H         1 <0>        0.00000
     58 H13         0.8826    0.6158    0.0000 H         1 <0>        0.00000
     59 H14         0.1681    2.6783    0.0000 H         1 <0>        0.00000
     60 H15         0.9931    1.8533    0.0000 H         1 <0>        0.00000
     61 H16         2.3116   -2.6842    0.0000 H         1 <0>        0.00000
     62 H17         3.0260   -3.0967    0.0000 H         1 <0>        0.00000
     63 H18         3.7077   -2.6319    0.0000 H         1 <0>        0.00000
     64 H19         3.7077   -2.6319    0.0000 H         1 <0>        0.00000
     65 H20         4.4960   -2.8751    0.0000 H         1 <0>        0.00000
     66 H21         4.4960   -2.8751    0.0000 H         1 <0>        0.00000
     67 H22         4.7974   -3.6431    0.0000 H         1 <0>        0.00000
     68 H23         4.7974   -3.6431    0.0000 H         1 <0>        0.00000
     69 H24         4.3849   -4.3575    0.0000 H         1 <0>        0.00000
     70 H25         4.3849   -4.3575    0.0000 H         1 <0>        0.00000
     71 H26         3.3260   -5.2688    0.0000 H         1 <0>        0.00000
     72 H27         3.3260   -5.2688    0.0000 H         1 <0>        0.00000
     73 H28         4.6914   -5.6900    0.0000 H         1 <0>        0.00000
     74 H29         5.2526   -6.2948    0.0000 H         1 <0>        0.00000
     75 H30         4.2051   -7.2667    0.0000 H         1 <0>        0.00000
     76 H31         3.6439   -6.6620    0.0000 H         1 <0>        0.00000
     77 H32         6.3749   -7.5043    0.0000 H         1 <0>        0.00000
     78 H33         6.9360   -8.1091    0.0000 H         1 <0>        0.00000
     79 H34         6.6928   -8.8974    0.0000 H         1 <0>        0.00000
     80 H35         5.8885   -9.0810    0.0000 H         1 <0>        0.00000
     81 H36         5.3274   -8.4763    0.0000 H         1 <0>        0.00000
@<TRIPOS>BOND
     1    1    2 1
     2    2    3 2
     3    2    4 am
     4    4    5 1
     5    5    6 1
     6    6    7 1
     7    7    8 ar
     8    8    9 ar
     9    9   10 ar
    10   10   11 1
    11   11   12 1
    12   12   13 1
    13   13   14 1
    14   13   15 2
    15   10   16 ar
    16   16   17 ar
    17    7   17 ar
    18   16   18 1
    19   18   19 1
    20   18   20 1
    21   18   21 2
    22    5   22 1
    23   22   23 2
    24   22   24 am
    25   24   25 1
    26   25   26 1
    27   26   27 1
    28   27   28 1
    29   28   29 1
    30   29   30 1
    31   30   31 1
    32   31   32 1
    33   32   33 ar
    34   33   34 ar
    35   34   35 ar
    36   35   36 ar
    37   36   37 ar
    38   32   37 ar
    39   35   38 1
    40   38   39 ar
    41   39   40 ar
    42   40   41 ar
    43   41   42 ar
    44   42   43 ar
    45   38   43 ar
    46   30   44 am
    47   25   44 1
    48   44   45 2
    49    1   46 1
    50    1   47 1
    51    1   48 1
    52    4   49 1
    53    5   50 1
    54    6   51 1
    55    6   52 1
    56    8   53 1
    57    9   54 1
    58   12   55 1
    59   12   56 1
    60   14   57 1
    61   17   58 1
    62   19   59 1
    63   20   60 1
    64   24   61 1
    65   25   62 1
    66   26   63 1
    67   26   64 1
    68   27   65 1
    69   27   66 1
    70   28   67 1
    71   28   68 1
    72   29   69 1
    73   29   70 1
    74   31   71 1
    75   31   72 1
    76   33   73 1
    77   34   74 1
    78   36   75 1
    79   37   76 1
    80   39   77 1
    81   40   78 1
    82   41   79 1
    83   42   80 1
    84   43   81 1
@<TRIPOS>SUBSTRUCTURE
     1 <0>         1 GROUP 0 A     ****
@<TRIPOS>MOLECULE
IS2
   27    27     1     0     0
SMALL
NO_CHARGES

@<TRIPOS>ATOM
      1 C1          1.2541    0.4213    0.0000 C.ar      1 <0>        0.00000
      2 C2          1.2541   -0.4037    0.0000 C.ar      1 <0>        0.00000
      3 C3          0.5397   -0.8162    0.0000 C.ar      1 <0>        0.00000
      4 C4         -0.1748   -0.4037    0.0000 C.ar      1 <0>        0.00000
      5 C5         -0.1748    0.4213    0.0000 C.ar      1 <0>        0.00000
      6 C6          0.5397    0.8338    0.0000 C.ar      1 <0>        0.00000
      7 N1         -0.8893   -0.8162    0.0000 N.am      1 <0>        0.00000
      8 C7         -1.6037   -0.4037    0.0000 C.2       1 <0>        0.00000
      9 O1         -1.6037    0.4213    0.0000 O.2       1 <0>        0.00000
     10 P1         -2.3182   -0.8162    0.0000 P.3       1 <0>        0.00000
     11 O2         -3.0327   -1.2287    0.0000 O.3       1 <0>        0.00000
     12 O3         -1.9057   -1.5307    0.0000 O.3       1 <0>        0.00000
     13 O4         -2.7307   -0.1017    0.0000 O.2       1 <0>        0.00000
     14 C8          1.9686    0.8338    0.0000 C.3       1 <0>        0.00000
     15 C9          1.9686    1.6588    0.0000 C.3       1 <0>        0.00000
     16 H1          1.2541   -0.4037    0.0000 H         1 <0>        0.00000
     17 H2          0.5397   -0.8162    0.0000 H         1 <0>        0.00000
     18 H3         -0.1748    0.4213    0.0000 H         1 <0>        0.00000
     19 H4          0.5397    0.8338    0.0000 H         1 <0>        0.00000
     20 H5         -0.8893   -0.8162    0.0000 H         1 <0>        0.00000
     21 H6         -3.0327   -1.2287    0.0000 H         1 <0>        0.00000
     22 H7         -1.9057   -1.5307    0.0000 H         1 <0>        0.00000
     23 H8          1.9686    0.8338    0.0000 H         1 <0>        0.00000
     24 H9          1.9686    0.8338    0.0000 H         1 <0>        0.00000
     25 H10         1.9686    1.6588    0.0000 H         1 <0>        0.00000
     26 H11         1.9686    1.6588    0.0000 H         1 <0>        0.00000
     27 H12         1.9686    1.6588    0.0000 H         1 <0>        0.00000
@<TRIPOS>BOND
     1    1    2 ar
     2    1    6 ar
     3    1   14 1
     4    2    3 ar
     5    3    4 ar
     6    4    5 ar
     7    4    7 1
     8    5    6 ar
     9    7    8 am
    10    8    9 2
    11    8   10 1
    12   10   11 1
    13   10   12 1
    14   10   13 2
    15   14   15 1
    16    2   16 1
    17    3   17 1
    18    5   18 1
    19    6   19 1
    20    7   20 1
    21   11   21 1
    22   12   22 1
    23   14   23 1
    24   14   24 1
    25   15   25 1
    26   15   26 1
    27   15   27 1
@<TRIPOS>SUBSTRUCTURE
     1 <0>         1 GROUP 0 A     ****
@<TRIPOS>MOLECULE
*****
   55    58     1     0     0
SMALL
NO_CHARGES

@<TRIPOS>ATOM
      1 C1         -0.4386    0.7834    0.0000 C.3       1 <0>        0.00000
      2 C2         -1.1526    0.3701    0.0000 C.3       1 <0>        0.00000
      3 C3          0.2753    0.3701    0.0000 C.3       1 <0>        0.00000
      4 O1         -1.1526   -0.4566    0.0000 O.3       1 <0>        0.00000
      5 C4         -0.4386   -0.8699    0.0000 C.3       1 <0>        0.00000
      6 O2         -1.4782    1.0464    0.0000 O.3       1 <0>        0.00000
      7 O3         -1.9542    0.5581    0.0000 O.3       1 <0>        0.00000
      8 C5         -0.4762    1.6394    0.0000 C.3       1 <0>        0.00000
      9 C6         -2.3049    1.3012    0.0000 C.3       1 <0>        0.00000
     10 C7          0.2753   -0.4566    0.0000 C.3       1 <0>        0.00000
     11 O4         -1.5408    1.7019    0.0000 O.3       1 <0>        0.00000
     12 C8          0.9099    0.8711    0.0000 C.3       1 <0>        0.00000
     13 C9         -1.1317    2.2239    0.0000 C.3       1 <0>        0.00000
     14 O5         -0.4428   -1.6966    0.0000 O.3       1 <0>        0.00000
     15 C10         0.2126    2.1028    0.0000 C.3       1 <0>        0.00000
     16 C11         0.9140    1.6853    0.0000 C.3       1 <0>        0.00000
     17 C12        -1.9417    2.0485    0.0000 C.3       1 <0>        0.00000
     18 C13        -3.1316    1.3095    0.0000 C.3       1 <0>        0.00000
     19 C14         0.9892   -0.8699    0.0000 C.3       1 <0>        0.00000
     20 C15         0.2084    2.9295    0.0000 C.3       1 <0>        0.00000
     21 H1         -1.8665   -0.0431    0.0000 H         1 <0>        0.00000
     22 H2         -0.5012    2.5244    0.0000 H         1 <0>        0.00000
     23 H3          0.9912   -0.0431    0.0000 H         1 <0>        0.00000
     24 C16         0.2740   -2.1046    0.0000 C.2       1 <0>        0.00000
     25 O6          0.2740   -2.9296    0.0000 O.2       1 <0>        0.00000
     26 C17         0.9872   -1.6899    0.0000 C.3       1 <0>        0.00000
     27 C18         1.7028   -2.1002    0.0000 C.3       1 <0>        0.00000
     28 C19         2.4160   -1.6855    0.0000 C.2       1 <0>        0.00000
     29 O7          3.1317   -2.0958    0.0000 O.3       1 <0>        0.00000
     30 O8          2.4135   -0.8605    0.0000 O.2       1 <0>        0.00000
     31 H4         -0.4386   -0.8699    0.0000 H         1 <0>        0.00000
     32 H5          0.2753   -0.4566    0.0000 H         1 <0>        0.00000
     33 H6          0.9099    0.8711    0.0000 H         1 <0>        0.00000
     34 H7          0.9099    0.8711    0.0000 H         1 <0>        0.00000
     35 H8         -1.1317    2.2239    0.0000 H         1 <0>        0.00000
     36 H9         -1.1317    2.2239    0.0000 H         1 <0>        0.00000
     37 H10         0.2126    2.1028    0.0000 H         1 <0>        0.00000
     38 H11         0.9140    1.6853    0.0000 H         1 <0>        0.00000
     39 H12         0.9140    1.6853    0.0000 H         1 <0>        0.00000
     40 H13        -1.9417    2.0485    0.0000 H         1 <0>        0.00000
     41 H14        -1.9417    2.0485    0.0000 H         1 <0>        0.00000
     42 H15        -3.1316    1.3095    0.0000 H         1 <0>        0.00000
     43 H16        -3.1316    1.3095    0.0000 H         1 <0>        0.00000
     44 H17        -3.1316    1.3095    0.0000 H         1 <0>        0.00000
     45 H18         0.9892   -0.8699    0.0000 H         1 <0>        0.00000
     46 H19         0.9892   -0.8699    0.0000 H         1 <0>        0.00000
     47 H20         0.9892   -0.8699    0.0000 H         1 <0>        0.00000
     48 H21         0.2084    2.9295    0.0000 H         1 <0>        0.00000
     49 H22         0.2084    2.9295    0.0000 H         1 <0>        0.00000
     50 H23         0.2084    2.9295    0.0000 H         1 <0>        0.00000
     51 H24         0.9872   -1.6899    0.0000 H         1 <0>        0.00000
     52 H25         0.9872   -1.6899    0.0000 H         1 <0>        0.00000
     53 H26         1.7028   -2.1002    0.0000 H         1 <0>        0.00000
     54 H27         1.7028   -2.1002    0.0000 H         1 <0>        0.00000
     55 H28         3.1317   -2.0958    0.0000 H         1 <0>        0.00000
@<TRIPOS>BOND
     1    1    2 1
     2    1    3 1
     3    2    4 1
     4    5   10 1
     5    1    6 1
     6    2    7 1
     7    1    8 1
     8    9   11 1
     9    3   10 1
    10    6   11 1
    11    3   12 1
    12    8   13 1
    13    5   14 1
    14    8   15 1
    15   15   16 1
    16   13   17 1
    17    9   18 1
    18   10   19 1
    19   15   20 1
    20    2   21 1
    21    8   22 1
    22   12   16 1
    23    9   17 1
    24    7    9 1
    25    4    5 1
    26    3   23 1
    27   14   24 1
    28   24   25 2
    29   24   26 1
    30   26   27 1
    31   27   28 1
    32   28   29 1
    33   28   30 2
    34    5   31 1
    35   10   32 1
    36   12   33 1
    37   12   34 1
    38   13   35 1
    39   13   36 1
    40   15   37 1
    41   16   38 1
    42   16   39 1
    43   17   40 1
    44   17   41 1
    45   18   42 1
    46   18   43 1
    47   18   44 1
    48   19   45 1
    49   19   46 1
    50   19   47 1
    51   20   48 1
    52   20   49 1
    53   20   50 1
    54   26   51 1
    55   26   52 1
    56   27   53 1
    57   27   54 1
    58   29   55 1
@<TRIPOS>SUBSTRUCTURE
     1 <0>         1 GROUP 0 A     ****
@<TRIPOS>MOLECULE
*****
   15    14     1     0     0
SMALL
NO_CHARGES

@<TRIPOS>ATOM
      1 N1          1.9520    1.9520    0.0000 N.3       1 <0>        0.00000
      2 C1          1.9520    1.1270    0.0000 C.3       1 <0>        0.00000
      3 C2          1.2375    0.7145    0.0000 C.3       1 <0>        0.00000
      4 S1          0.5230    1.1270    0.0000 S.3       1 <0>        0.00000
      5 O1         -0.1914    0.7145    0.0000 O.3       1 <0>        0.00000
      6 C3          2.6664    0.7145    0.0000 C.2       1 <0>        0.00000
      7 O2          3.3809    1.1270    0.0000 O.3       1 <0>        0.00000
      8 O3          2.6664   -0.1105    0.0000 O.2       1 <0>        0.00000
      9 H1          1.9520    1.9520    0.0000 H         1 <0>        0.00000
     10 H2          1.9520    1.9520    0.0000 H         1 <0>        0.00000
     11 H3          1.9520    1.1270    0.0000 H         1 <0>        0.00000
     12 H4          1.2375    0.7145    0.0000 H         1 <0>        0.00000
     13 H5          1.2375    0.7145    0.0000 H         1 <0>        0.00000
     14 H6         -0.1914    0.7145    0.0000 H         1 <0>        0.00000
     15 H7          3.3809    1.1270    0.0000 H         1 <0>        0.00000
@<TRIPOS>BOND
     1    1    2 1
     2    2    3 1
     3    3    4 1
     4    4    5 1
     5    2    6 1
     6    6    7 1
     7    6    8 2
     8    1    9 1
     9    1   10 1
    10    2   11 1
    11    3   12 1
    12    3   13 1
    13    5   14 1
    14    7   15 1
@<TRIPOS>SUBSTRUCTURE
     1 <0>         1 GROUP 0 A     ****
@<TRIPOS>MOLECULE
*****
   51    55     1     0     0
SMALL
NO_CHARGES

@<TRIPOS>ATOM
      1 O1          4.6015    1.3511    0.0000 O.2       1 <0>        0.00000
      2 C1          3.8888    0.9367    0.0000 C.2       1 <0>        0.00000
      3 O2          3.8888    0.1122    0.0000 O.3       1 <0>        0.00000
      4 C2          3.1736    1.3468    0.0000 C.ar      1 <0>        0.00000
      5 C3          3.1736    2.1756    0.0000 C.ar      1 <0>        0.00000
      6 C4          2.4583    2.5857    0.0000 C.ar      1 <0>        0.00000
      7 C5          1.7431    2.1756    0.0000 C.ar      1 <0>        0.00000
      8 C6          1.7431    1.3468    0.0000 C.ar      1 <0>        0.00000
      9 C7          1.0278    0.9367    0.0000 C.ar      1 <0>        0.00000
     10 N1          0.3126    1.3553    0.0000 N.ar      1 <0>        0.00000
     11 C8         -0.4025    0.9367    0.0000 C.ar      1 <0>        0.00000
     12 N2         -1.1178    1.3468    0.0000 N.am      1 <0>        0.00000
     13 C9         -1.8306    0.9325    0.0000 C.2       1 <0>        0.00000
     14 C10        -2.5459    1.3426    0.0000 C.3       1 <0>        0.00000
     15 C11        -3.0737    0.7093    0.0000 C.ar      1 <0>        0.00000
     16 C12        -3.8905    0.8530    0.0000 C.ar      1 <0>        0.00000
     17 C13        -4.4188    0.2193    0.0000 C.ar      1 <0>        0.00000
     18 C14        -4.1394   -0.5564    0.0000 C.ar      1 <0>        0.00000
     19 O3         -4.5291   -1.2897    0.0000 O.3       1 <0>        0.00000
     20 C15        -3.9520   -1.8868    0.0000 C.3       1 <0>        0.00000
     21 F1         -3.5147   -2.5857    0.0000 F         1 <0>        0.00000
     22 F2         -4.6015   -2.3947    0.0000 F         1 <0>        0.00000
     23 O4         -3.2060   -1.5224    0.0000 O.3       1 <0>        0.00000
     24 C16        -3.3218   -0.7002    0.0000 C.ar      1 <0>        0.00000
     25 C17        -2.7853   -0.0680    0.0000 C.ar      1 <0>        0.00000
     26 C18        -3.0781    1.9722    0.0000 C.3       1 <0>        0.00000
     27 C19        -2.2653    2.1196    0.0000 C.3       1 <0>        0.00000
     28 O5         -1.8306    0.1080    0.0000 O.2       1 <0>        0.00000
     29 C20        -0.4025    0.1079    0.0000 C.ar      1 <0>        0.00000
     30 C21         0.3126   -0.3021    0.0000 C.ar      1 <0>        0.00000
     31 C22         1.0278    0.1079    0.0000 C.ar      1 <0>        0.00000
     32 C23         1.7412   -0.3053    0.0000 C.3       1 <0>        0.00000
     33 C24         2.4583    0.9282    0.0000 C.ar      1 <0>        0.00000
     34 H1          3.8888    0.1122    0.0000 H         1 <0>        0.00000
     35 H2          3.1736    2.1756    0.0000 H         1 <0>        0.00000
     36 H3          2.4583    2.5857    0.0000 H         1 <0>        0.00000
     37 H4          1.7431    2.1756    0.0000 H         1 <0>        0.00000
     38 H5         -1.1178    1.3468    0.0000 H         1 <0>        0.00000
     39 H6         -3.8905    0.8530    0.0000 H         1 <0>        0.00000
     40 H7         -4.4188    0.2193    0.0000 H         1 <0>        0.00000
     41 H8         -2.7853   -0.0680    0.0000 H         1 <0>        0.00000
     42 H9         -3.0781    1.9722    0.0000 H         1 <0>        0.00000
     43 H10        -3.0781    1.9722    0.0000 H         1 <0>        0.00000
     44 H11        -2.2653    2.1196    0.0000 H         1 <0>        0.00000
     45 H12        -2.2653    2.1196    0.0000 H         1 <0>        0.00000
     46 H13        -0.4025    0.1079    0.0000 H         1 <0>        0.00000
     47 H14         0.3126   -0.3021    0.0000 H         1 <0>        0.00000
     48 H15         1.7412   -0.3053    0.0000 H         1 <0>        0.00000
     49 H16         1.7412   -0.3053    0.0000 H         1 <0>        0.00000
     50 H17         1.7412   -0.3053    0.0000 H         1 <0>        0.00000
     51 H18         2.4583    0.9282    0.0000 H         1 <0>        0.00000
@<TRIPOS>BOND
     1    1    2 2
     2    2    3 1
     3    2    4 1
     4    4    5 ar
     5    4   33 ar
     6    5    6 ar
     7    6    7 ar
     8    7    8 ar
     9    8    9 1
    10    8   33 ar
    11    9   10 ar
    12    9   31 ar
    13   10   11 ar
    14   11   12 1
    15   11   29 ar
    16   12   13 am
    17   13   14 1
    18   13   28 2
    19   14   15 1
    20   14   26 1
    21   14   27 1
    22   15   16 ar
    23   15   25 ar
    24   16   17 ar
    25   17   18 ar
    26   18   19 1
    27   18   24 ar
    28   19   20 1
    29   20   21 1
    30   20   22 1
    31   20   23 1
    32   23   24 1
    33   24   25 ar
    34   26   27 1
    35   29   30 ar
    36   30   31 ar
    37   31   32 1
    38    3   34 1
    39    5   35 1
    40    6   36 1
    41    7   37 1
    42   12   38 1
    43   16   39 1
    44   17   40 1
    45   25   41 1
    46   26   42 1
    47   26   43 1
    48   27   44 1
    49   27   45 1
    50   29   46 1
    51   30   47 1
    52   32   48 1
    53   32   49 1
    54   32   50 1
    55   33   51 1
@<TRIPOS>SUBSTRUCTURE
     1 <0>         1 GROUP 0 A     ****
@<TRIPOS>MOLECULE
*****
   31    32     1     0     0
SMALL
NO_CHARGES

@<TRIPOS>ATOM
      1 N1          1.9109   -0.2767    0.0000 N.pl3     1 <0>        0.00000
      2 C1          1.4944   -0.9890    0.0000 C.3       1 <0>        0.00000
      3 C2          1.9029   -1.7058    0.0000 C.3       1 <0>        0.00000
      4 O1          2.7282   -1.7104    0.0000 O.3       1 <0>        0.00000
      5 C3          3.1446   -0.9981    0.0000 C.3       1 <0>        0.00000
      6 C4          2.7361   -0.2812    0.0000 C.3       1 <0>        0.00000
      7 N2          1.5024    0.4398    0.0000 N.ar      1 <0>        0.00000
      8 N3          1.7592    1.2238    0.0000 N.ar      1 <0>        0.00000
      9 O2          1.0900    1.7104    0.0000 O.3       1 <0>        0.00000
     10 C5          0.4210    1.2238    0.0000 C.ar      1 <0>        0.00000
     11 C6          0.6776    0.4398    0.0000 C.ar      1 <0>        0.00000
     12 N4         -0.2928    1.6395    0.0000 N.2       1 <0>        0.00000
     13 C7         -1.0052    1.2272    0.0000 C.2       1 <0>        0.00000
     14 O3         -1.7175    1.6395    0.0000 O.3       1 <0>        0.00000
     15 C8         -2.4299    1.2272    0.0000 C.3       1 <0>        0.00000
     16 O4         -1.0052    0.4023    0.0000 O.2       1 <0>        0.00000
     17 C9         -3.1446    1.6388    0.0000 C.3       1 <0>        0.00000
     18 H1          1.4944   -0.9890    0.0000 H         1 <0>        0.00000
     19 H2          1.4944   -0.9890    0.0000 H         1 <0>        0.00000
     20 H3          1.9029   -1.7058    0.0000 H         1 <0>        0.00000
     21 H4          1.9029   -1.7058    0.0000 H         1 <0>        0.00000
     22 H5          3.1446   -0.9981    0.0000 H         1 <0>        0.00000
     23 H6          3.1446   -0.9981    0.0000 H         1 <0>        0.00000
     24 H7          2.7361   -0.2812    0.0000 H         1 <0>        0.00000
     25 H8          2.7361   -0.2812    0.0000 H         1 <0>        0.00000
     26 H9          0.6776    0.4398    0.0000 H         1 <0>        0.00000
     27 H10        -2.4299    1.2272    0.0000 H         1 <0>        0.00000
     28 H11        -2.4299    1.2272    0.0000 H         1 <0>        0.00000
     29 H12        -3.1446    1.6388    0.0000 H         1 <0>        0.00000
     30 H13        -3.1446    1.6388    0.0000 H         1 <0>        0.00000
     31 H14        -3.1446    1.6388    0.0000 H         1 <0>        0.00000
@<TRIPOS>BOND
     1    3    4 1
     2    4    5 1
     3    7    8 2
     4    8    9 1
     5    9   10 1
     6   10   11 2
     7    7   11 1
     8    5    6 1
     9   10   12 1
    10    1    6 1
    11   12   13 1
    12   13   14 1
    13    1    7 1
    14   14   15 1
    15    1    2 1
    16   13   16 2
    17    2    3 1
    18   15   17 1
    19    2   18 1
    20    2   19 1
    21    3   20 1
    22    3   21 1
    23    5   22 1
    24    5   23 1
    25    6   24 1
    26    6   25 1
    27   11   26 1
    28   15   27 1
    29   15   28 1
    30   17   29 1
    31   17   30 1
    32   17   31 1
@<TRIPOS>SUBSTRUCTURE
     1 <0>         1 GROUP 0 A     ****
@<TRIPOS>MOLECULE
T2M
   25    24     1     0     0
SMALL
NO_CHARGES

@<TRIPOS>ATOM
      1 C1          1.7345   -0.5402    0.0000 C.3       1 <0>        0.00000
      2 N1          1.7345    0.2848    0.0000 N.3       1 <0>        0.00000
      3 N2          1.0200    0.6974    0.0000 N.am      1 <0>        0.00000
      4 C2          0.3054    0.2848    0.0000 C.2       1 <0>        0.00000
      5 O1          0.3054   -0.5402    0.0000 O.2       1 <0>        0.00000
      6 O2         -0.4090    0.6974    0.0000 O.3       1 <0>        0.00000
      7 C3         -1.1236    0.2848    0.0000 C.3       1 <0>        0.00000
      8 C4         -1.8381   -0.1277    0.0000 C.3       1 <0>        0.00000
      9 C5         -0.7111   -0.4297    0.0000 C.3       1 <0>        0.00000
     10 C6         -1.5361    0.9993    0.0000 C.3       1 <0>        0.00000
     11 C7          2.4491    0.6974    0.0000 C.1       1 <0>        0.00000
     12 N3          3.1635    1.1099    0.0000 N.1       1 <0>        0.00000
     13 H1          1.7345   -0.5402    0.0000 H         1 <0>        0.00000
     14 H2          1.7345   -0.5402    0.0000 H         1 <0>        0.00000
     15 H3          1.7345   -0.5402    0.0000 H         1 <0>        0.00000
     16 H4          1.0200    0.6974    0.0000 H         1 <0>        0.00000
     17 H5         -1.8381   -0.1277    0.0000 H         1 <0>        0.00000
     18 H6         -1.8381   -0.1277    0.0000 H         1 <0>        0.00000
     19 H7         -1.8381   -0.1277    0.0000 H         1 <0>        0.00000
     20 H8         -0.7111   -0.4297    0.0000 H         1 <0>        0.00000
     21 H9         -0.7111   -0.4297    0.0000 H         1 <0>        0.00000
     22 H10        -0.7111   -0.4297    0.0000 H         1 <0>        0.00000
     23 H11        -1.5361    0.9993    0.0000 H         1 <0>        0.00000
     24 H12        -1.5361    0.9993    0.0000 H         1 <0>        0.00000
     25 H13        -1.5361    0.9993    0.0000 H         1 <0>        0.00000
@<TRIPOS>BOND
     1    1    2 1
     2    2    3 1
     3    2   11 1
     4    3    4 am
     5    4    5 2
     6    4    6 1
     7    6    7 1
     8    7    8 1
     9    7    9 1
    10    7   10 1
    11   11   12 3
    12    1   13 1
    13    1   14 1
    14    1   15 1
    15    3   16 1
    16    8   17 1
    17    8   18 1
    18    8   19 1
    19    9   20 1
    20    9   21 1
    21    9   22 1
    22   10   23 1
    23   10   24 1
    24   10   25 1
@<TRIPOS>SUBSTRUCTURE
     1 <0>         1 GROUP 0 A     ****
@<TRIPOS>MOLECULE
AIA
   41    42     1     0     0
SMALL
NO_CHARGES

@<TRIPOS>ATOM
      1 C1          1.5130    0.6759    0.0000 C.3       1 <0>        0.00000
      2 C2          1.1005   -0.5937    0.0000 C.3       1 <0>        0.00000
      3 C3          0.0610    0.4459    0.0000 C.2       1 <0>        0.00000
      4 C4          2.1805    0.1910    0.0000 C.3       1 <0>        0.00000
      5 C5          1.5130    1.5009    0.0000 C.1       1 <0>        0.00000
      6 C6          1.9255   -0.5937    0.0000 C.3       1 <0>        0.00000
      7 C7          0.6156   -1.2611    0.0000 C.3       1 <0>        0.00000
      8 C8         -0.5521   -0.1061    0.0000 C.3       1 <0>        0.00000
      9 N1          0.8456    0.1910    0.0000 N.am      1 <0>        0.00000
     10 O1         -0.1106    1.2529    0.0000 O.2       1 <0>        0.00000
     11 C9          1.5130    2.3259    0.0000 C.1       1 <0>        0.00000
     12 N2          0.9512   -2.0148    0.0000 N.3       1 <0>        0.00000
     13 C10        -1.3368    0.1488    0.0000 C.3       1 <0>        0.00000
     14 N3         -0.3806   -0.9131    0.0000 N.3       1 <0>        0.00000
     15 C11        -2.0042   -0.3361    0.0000 C.3       1 <0>        0.00000
     16 C12        -1.5917    0.9334    0.0000 C.3       1 <0>        0.00000
     17 C13        -2.6716    0.1488    0.0000 C.3       1 <0>        0.00000
     18 C14        -2.4167    0.9334    0.0000 C.3       1 <0>        0.00000
     19 H1          2.0333    0.9410    0.0000 H         1 <0>        0.00000
     20 H2          1.3656   -1.1139    0.0000 H         1 <0>        0.00000
     21 H3         -0.6735    0.4650    0.0000 H         1 <0>        0.00000
     22 H4          2.1805    0.1910    0.0000 H         1 <0>        0.00000
     23 H5          2.1805    0.1910    0.0000 H         1 <0>        0.00000
     24 H6          1.9255   -0.5937    0.0000 H         1 <0>        0.00000
     25 H7          1.9255   -0.5937    0.0000 H         1 <0>        0.00000
     26 H8          0.6156   -1.2611    0.0000 H         1 <0>        0.00000
     27 H9          0.6156   -1.2611    0.0000 H         1 <0>        0.00000
     28 H10         1.5130    2.3259    0.0000 H         1 <0>        0.00000
     29 H11         0.9512   -2.0148    0.0000 H         1 <0>        0.00000
     30 H12         0.9512   -2.0148    0.0000 H         1 <0>        0.00000
     31 H13        -1.3368    0.1488    0.0000 H         1 <0>        0.00000
     32 H14        -0.3806   -0.9131    0.0000 H         1 <0>        0.00000
     33 H15        -0.3806   -0.9131    0.0000 H         1 <0>        0.00000
     34 H16        -2.0042   -0.3361    0.0000 H         1 <0>        0.00000
     35 H17        -2.0042   -0.3361    0.0000 H         1 <0>        0.00000
     36 H18        -1.5917    0.9334    0.0000 H         1 <0>        0.00000
     37 H19        -1.5917    0.9334    0.0000 H         1 <0>        0.00000
     38 H20        -2.6716    0.1488    0.0000 H         1 <0>        0.00000
     39 H21        -2.6716    0.1488    0.0000 H         1 <0>        0.00000
     40 H22        -2.4167    0.9334    0.0000 H         1 <0>        0.00000
     41 H23        -2.4167    0.9334    0.0000 H         1 <0>        0.00000
@<TRIPOS>BOND
     1    1    4 1
     2    1    5 1
     3    1    9 1
     4    1   19 1
     5    2    6 1
     6    2    7 1
     7    2    9 1
     8    2   20 1
     9    3    8 1
    10    3    9 am
    11    3   10 2
    12    4    6 1
    13    5   11 3
    14    7   12 1
    15    8   13 1
    16    8   14 1
    17    8   21 1
    18   13   15 1
    19   13   16 1
    20   15   17 1
    21   16   18 1
    22   17   18 1
    23    4   22 1
    24    4   23 1
    25    6   24 1
    26    6   25 1
    27    7   26 1
    28    7   27 1
    29   11   28 1
    30   12   29 1
    31   12   30 1
    32   13   31 1
    33   14   32 1
    34   14   33 1
    35   15   34 1
    36   15   35 1
    37   16   36 1
    38   16   37 1
    39   17   38 1
    40   17   39 1
    41   18   40 1
    42   18   41 1
@<TRIPOS>SUBSTRUCTURE
     1 <0>         1 GROUP 0 A     ****
@<TRIPOS>MOLECULE
*****
   18    17     1     0     0
SMALL
NO_CHARGES

@<TRIPOS>ATOM
      1 C1          6.2861   -7.7655    0.0000 C.3       1 <0>        0.00000
      2 C2          6.9920   -7.3579    0.0000 C.3       1 <0>        0.00000
      3 C3          7.6978   -7.7655    0.0000 C.2       1 <0>        0.00000
      4 C4          8.4037   -7.3579    0.0000 C.2       1 <0>        0.00000
      5 Cl1         9.1202   -7.7717    0.0000 Cl        1 <0>        0.00000
      6 H1          8.4035   -6.5294    0.0000 H         1 <0>        0.00000
      7 C5          7.3967   -6.6390    0.0000 C.1       1 <0>        0.00000
      8 O1          6.5693   -6.6390    0.0000 O.3       1 <0>        0.00000
      9 C6          5.5724   -7.3469    0.0000 C.3       1 <0>        0.00000
     10 C7          7.8054   -5.9213    0.0000 C.1       1 <0>        0.00000
     11 H2          6.2861   -7.7655    0.0000 H         1 <0>        0.00000
     12 H3          6.2861   -7.7655    0.0000 H         1 <0>        0.00000
     13 H4          7.6978   -7.7655    0.0000 H         1 <0>        0.00000
     14 H5          6.5693   -6.6390    0.0000 H         1 <0>        0.00000
     15 H6          5.5724   -7.3469    0.0000 H         1 <0>        0.00000
     16 H7          5.5724   -7.3469    0.0000 H         1 <0>        0.00000
     17 H8          5.5724   -7.3469    0.0000 H         1 <0>        0.00000
     18 H9          7.8054   -5.9213    0.0000 H         1 <0>        0.00000
@<TRIPOS>BOND
     1    1    2 1
     2    2    3 1
     3    3    4 2
     4    4    5 1
     5    4    6 1
     6    2    7 1
     7    2    8 1
     8    1    9 1
     9    7   10 3
    10    1   11 1
    11    1   12 1
    12    3   13 1
    13    8   14 1
    14    9   15 1
    15    9   16 1
    16    9   17 1
    17   10   18 1
@<TRIPOS>SUBSTRUCTURE
     1 <0>         1 GROUP 0 A     ****
@<TRIPOS>MOLECULE
C28
   58    60     1     0     0
SMALL
NO_CHARGES

@<TRIPOS>ATOM
      1 C1          3.6552   -2.2338    0.0000 C.ar      1 <0>        0.00000
      2 C2          2.9408   -0.9963    0.0000 C.ar      1 <0>        0.00000
      3 C3          2.2263   -1.4088    0.0000 C.ar      1 <0>        0.00000
      4 C4          2.2263   -2.2338    0.0000 C.ar      1 <0>        0.00000
      5 C5          2.9408   -2.6463    0.0000 C.ar      1 <0>        0.00000
      6 C6          3.6552   -1.4088    0.0000 C.ar      1 <0>        0.00000
      7 C7          1.5118   -0.9963    0.0000 C.3       1 <0>        0.00000
      8 F1          4.3697   -2.6463    0.0000 F         1 <0>        0.00000
      9 N1          0.7973   -1.4088    0.0000 N.3       1 <0>        0.00000
     10 C8          1.5118   -0.1713    0.0000 C.3       1 <0>        0.00000
     11 C9          0.0829   -0.9963    0.0000 C.3       1 <0>        0.00000
     12 C10         0.0829   -0.1713    0.0000 C.2       1 <0>        0.00000
     13 C11        -0.6316   -1.4088    0.0000 C.3       1 <0>        0.00000
     14 S1         -1.3461   -0.9963    0.0000 S.o2      1 <0>        0.00000
     15 N2         -2.0605   -0.5838    0.0000 N.pl3     1 <0>        0.00000
     16 N3         -0.6316    0.2412    0.0000 N.am      1 <0>        0.00000
     17 O1          0.7973    0.2412    0.0000 O.2       1 <0>        0.00000
     18 C12        -0.6316    1.0662    0.0000 C.3       1 <0>        0.00000
     19 C13        -0.3494    1.8414    0.0000 C.3       1 <0>        0.00000
     20 C14         0.1809    1.2094    0.0000 C.3       1 <0>        0.00000
     21 O2         -0.9336   -0.2819    0.0000 O.2       1 <0>        0.00000
     22 F2          1.5118    0.6537    0.0000 F         1 <0>        0.00000
     23 F3          2.3368   -0.1713    0.0000 F         1 <0>        0.00000
     24 F4          0.6868   -0.1713    0.0000 F         1 <0>        0.00000
     25 O3         -1.7586   -1.7108    0.0000 O.2       1 <0>        0.00000
     26 C15        -2.7750   -0.9963    0.0000 C.3       1 <0>        0.00000
     27 C16        -3.4895   -0.5838    0.0000 C.3       1 <0>        0.00000
     28 O4         -3.4895    0.2412    0.0000 O.3       1 <0>        0.00000
     29 C17        -2.7750    0.6537    0.0000 C.3       1 <0>        0.00000
     30 C18        -2.0605    0.2412    0.0000 C.3       1 <0>        0.00000
     31 N4         -1.7262    1.9847    0.0000 N.3       1 <0>        0.00000
     32 C19        -1.4441    1.2094    0.0000 C.3       1 <0>        0.00000
     33 H1          1.5118   -1.5803    0.0000 H         1 <0>        0.00000
     34 H2          0.5886   -0.7044    0.0000 H         1 <0>        0.00000
     35 H3          2.9408   -0.9963    0.0000 H         1 <0>        0.00000
     36 H4          2.2263   -2.2338    0.0000 H         1 <0>        0.00000
     37 H5          2.9408   -2.6463    0.0000 H         1 <0>        0.00000
     38 H6          3.6552   -1.4088    0.0000 H         1 <0>        0.00000
     39 H7          0.7973   -1.4088    0.0000 H         1 <0>        0.00000
     40 H8         -0.6316   -1.4088    0.0000 H         1 <0>        0.00000
     41 H9         -0.6316   -1.4088    0.0000 H         1 <0>        0.00000
     42 H10        -0.6316    0.2412    0.0000 H         1 <0>        0.00000
     43 H11        -0.3494    1.8414    0.0000 H         1 <0>        0.00000
     44 H12        -0.3494    1.8414    0.0000 H         1 <0>        0.00000
     45 H13         0.1809    1.2094    0.0000 H         1 <0>        0.00000
     46 H14         0.1809    1.2094    0.0000 H         1 <0>        0.00000
     47 H15        -2.7750   -0.9963    0.0000 H         1 <0>        0.00000
     48 H16        -2.7750   -0.9963    0.0000 H         1 <0>        0.00000
     49 H17        -3.4895   -0.5838    0.0000 H         1 <0>        0.00000
     50 H18        -3.4895   -0.5838    0.0000 H         1 <0>        0.00000
     51 H19        -2.7750    0.6537    0.0000 H         1 <0>        0.00000
     52 H20        -2.7750    0.6537    0.0000 H         1 <0>        0.00000
     53 H21        -2.0605    0.2412    0.0000 H         1 <0>        0.00000
     54 H22        -2.0605    0.2412    0.0000 H         1 <0>        0.00000
     55 H23        -1.7262    1.9847    0.0000 H         1 <0>        0.00000
     56 H24        -1.7262    1.9847    0.0000 H         1 <0>        0.00000
     57 H25        -1.4441    1.2094    0.0000 H         1 <0>        0.00000
     58 H26        -1.4441    1.2094    0.0000 H         1 <0>        0.00000
@<TRIPOS>BOND
     1    1    5 ar
     2    1    6 ar
     3    1    8 1
     4    2    3 ar
     5    2    6 ar
     6    3    4 ar
     7    3    7 1
     8    4    5 ar
     9    7    9 1
    10    7   10 1
    11    7   33 1
    12    9   11 1
    13   10   22 1
    14   10   23 1
    15   10   24 1
    16   11   12 1
    17   11   13 1
    18   11   34 1
    19   12   16 am
    20   12   17 2
    21   13   14 1
    22   14   15 1
    23   14   21 2
    24   14   25 2
    25   15   26 1
    26   15   30 1
    27   16   18 1
    28   18   19 1
    29   18   20 1
    30   18   32 1
    31   19   20 1
    32   26   27 1
    33   27   28 1
    34   28   29 1
    35   29   30 1
    36   31   32 1
    37    2   35 1
    38    4   36 1
    39    5   37 1
    40    6   38 1
    41    9   39 1
    42   13   40 1
    43   13   41 1
    44   16   42 1
    45   19   43 1
    46   19   44 1
    47   20   45 1
    48   20   46 1
    49   26   47 1
    50   26   48 1
    51   27   49 1
    52   27   50 1
    53   29   51 1
    54   29   52 1
    55   30   53 1
    56   30   54 1
    57   31   55 1
    58   31   56 1
    59   32   57 1
    60   32   58 1
@<TRIPOS>SUBSTRUCTURE
     1 <0>         1 GROUP 0 A     ****
@<TRIPOS>MOLECULE
315
   59    62     1     0     0
SMALL
NO_CHARGES

@<TRIPOS>ATOM
      1 C1         -0.0767   -0.9562    0.0000 C.3       1 <0>        0.00000
      2 C2          0.6378   -1.3687    0.0000 C.3       1 <0>        0.00000
      3 C3          0.6378   -2.1937    0.0000 C.2       1 <0>        0.00000
      4 N1          1.3523   -2.6062    0.0000 N.am      1 <0>        0.00000
      5 O1         -0.0767   -2.6062    0.0000 O.2       1 <0>        0.00000
      6 N2          1.3523   -0.9562    0.0000 N.3       1 <0>        0.00000
      7 C4         -0.7911   -1.3687    0.0000 C.3       1 <0>        0.00000
      8 C5          1.4385   -3.4267    0.0000 C.3       1 <0>        0.00000
      9 C6          2.2455   -3.5982    0.0000 C.3       1 <0>        0.00000
     10 C7          2.6580   -2.8838    0.0000 C.3       1 <0>        0.00000
     11 C8          2.1060   -2.2707    0.0000 C.3       1 <0>        0.00000
     12 F1          2.5811   -4.3519    0.0000 F         1 <0>        0.00000
     13 C9         -1.5056   -0.9562    0.0000 C.3       1 <0>        0.00000
     14 C10        -1.9181   -0.2418    0.0000 C.3       1 <0>        0.00000
     15 C11        -2.3306   -0.9562    0.0000 C.3       1 <0>        0.00000
     16 C12        -0.0767   -0.1312    0.0000 C.3       1 <0>        0.00000
     17 N3         -0.7441    0.3537    0.0000 N.3       1 <0>        0.00000
     18 C13        -0.4892    1.1383    0.0000 C.3       1 <0>        0.00000
     19 N4          0.3358    1.1383    0.0000 N.3       1 <0>        0.00000
     20 O2          0.5908    0.3537    0.0000 O.3       1 <0>        0.00000
     21 C14        -0.9741    1.8058    0.0000 C.ar      1 <0>        0.00000
     22 C15        -1.7946    1.7195    0.0000 C.ar      1 <0>        0.00000
     23 C16        -2.2795    2.3870    0.0000 C.ar      1 <0>        0.00000
     24 C17        -1.9439    3.1406    0.0000 C.ar      1 <0>        0.00000
     25 C18        -1.1234    3.2269    0.0000 C.ar      1 <0>        0.00000
     26 C19        -0.6385    2.5594    0.0000 C.ar      1 <0>        0.00000
     27 F2          0.1820    2.6457    0.0000 F         1 <0>        0.00000
     28 S1         -2.4288    3.8081    0.0000 S.o2      1 <0>        0.00000
     29 O3         -2.9138    4.4755    0.0000 O.2       1 <0>        0.00000
     30 O4         -1.7614    4.2930    0.0000 O.2       1 <0>        0.00000
     31 C20        -3.0963    3.3232    0.0000 C.3       1 <0>        0.00000
     32 H1          0.4290   -0.6643    0.0000 H         1 <0>        0.00000
     33 H2          0.1321   -1.6607    0.0000 H         1 <0>        0.00000
     34 H3          1.8780   -4.0520    0.0000 H         1 <0>        0.00000
     35 H4         -0.5969   -0.3963    0.0000 H         1 <0>        0.00000
     36 H5         -1.0659    1.0470    0.0000 H         1 <0>        0.00000
     37 H6          1.3523   -0.9562    0.0000 H         1 <0>        0.00000
     38 H7          1.3523   -0.9562    0.0000 H         1 <0>        0.00000
     39 H8         -0.7911   -1.3687    0.0000 H         1 <0>        0.00000
     40 H9         -0.7911   -1.3687    0.0000 H         1 <0>        0.00000
     41 H10         1.4385   -3.4267    0.0000 H         1 <0>        0.00000
     42 H11         1.4385   -3.4267    0.0000 H         1 <0>        0.00000
     43 H12         2.6580   -2.8838    0.0000 H         1 <0>        0.00000
     44 H13         2.6580   -2.8838    0.0000 H         1 <0>        0.00000
     45 H14         2.1060   -2.2707    0.0000 H         1 <0>        0.00000
     46 H15         2.1060   -2.2707    0.0000 H         1 <0>        0.00000
     47 H16        -1.5056   -0.9562    0.0000 H         1 <0>        0.00000
     48 H17        -1.9181   -0.2418    0.0000 H         1 <0>        0.00000
     49 H18        -1.9181   -0.2418    0.0000 H         1 <0>        0.00000
     50 H19        -2.3306   -0.9562    0.0000 H         1 <0>        0.00000
     51 H20        -2.3306   -0.9562    0.0000 H         1 <0>        0.00000
     52 H21        -0.7441    0.3537    0.0000 H         1 <0>        0.00000
     53 H22         0.3358    1.1383    0.0000 H         1 <0>        0.00000
     54 H23        -1.7946    1.7195    0.0000 H         1 <0>        0.00000
     55 H24        -2.2795    2.3870    0.0000 H         1 <0>        0.00000
     56 H25        -1.1234    3.2269    0.0000 H         1 <0>        0.00000
     57 H26        -3.0963    3.3232    0.0000 H         1 <0>        0.00000
     58 H27        -3.0963    3.3232    0.0000 H         1 <0>        0.00000
     59 H28        -3.0963    3.3232    0.0000 H         1 <0>        0.00000
@<TRIPOS>BOND
     1    1    2 1
     2    1   16 1
     3    1   32 1
     4    2    3 1
     5    2   33 1
     6    3    4 am
     7    4   11 1
     8    4    8 1
     9    3    5 2
    10    2    6 1
    11    1    7 1
    12    8    9 1
    13    9   12 1
    14    9   34 1
    15    9   10 1
    16   10   11 1
    17    7   13 1
    18   13   14 1
    19   13   15 1
    20   14   15 1
    21   16   17 1
    22   16   20 1
    23   16   35 1
    24   17   18 1
    25   18   19 1
    26   18   21 1
    27   18   36 1
    28   19   20 1
    29   21   22 ar
    30   21   26 ar
    31   22   23 ar
    32   23   24 ar
    33   24   28 1
    34   24   25 ar
    35   25   26 ar
    36   26   27 1
    37   28   30 2
    38   28   29 2
    39   28   31 1
    40    6   37 1
    41    6   38 1
    42    7   39 1
    43    7   40 1
    44    8   41 1
    45    8   42 1
    46   10   43 1
    47   10   44 1
    48   11   45 1
    49   11   46 1
    50   13   47 1
    51   14   48 1
    52   14   49 1
    53   15   50 1
    54   15   51 1
    55   17   52 1
    56   19   53 1
    57   22   54 1
    58   23   55 1
    59   25   56 1
    60   31   57 1
    61   31   58 1
    62   31   59 1
@<TRIPOS>SUBSTRUCTURE
     1 <0>         1 GROUP 0 A     ****
@<TRIPOS>MOLECULE
616
   60    61     1     0     0
SMALL
NO_CHARGES

@<TRIPOS>ATOM
      1 O1          0.6548    2.2429    0.0000 O.2       1 <0>        0.00000
      2 C1          0.6548    1.4179    0.0000 C.2       1 <0>        0.00000
      3 C2          1.3693    1.0054    0.0000 C.3       1 <0>        0.00000
      4 C3          2.0838    1.4179    0.0000 C.3       1 <0>        0.00000
      5 C4          2.0838    2.2429    0.0000 C.3       1 <0>        0.00000
      6 C5          2.7982    1.0054    0.0000 C.3       1 <0>        0.00000
      7 C6          1.3693    0.1804    0.0000 C.3       1 <0>        0.00000
      8 C7          2.0367   -0.3045    0.0000 C.3       1 <0>        0.00000
      9 N1          2.8214   -0.0496    0.0000 N.pl3     1 <0>        0.00000
     10 S1          3.4344   -0.6016    0.0000 S.o2      1 <0>        0.00000
     11 O2          4.0475   -1.1537    0.0000 O.2       1 <0>        0.00000
     12 O3          3.9865    0.0115    0.0000 O.2       1 <0>        0.00000
     13 C8          2.8824   -1.2147    0.0000 C.3       1 <0>        0.00000
     14 C9          1.7818   -1.0892    0.0000 C.3       1 <0>        0.00000
     15 C10         0.9568   -1.0892    0.0000 C.3       1 <0>        0.00000
     16 N2          0.7019   -0.3045    0.0000 N.am      1 <0>        0.00000
     17 C11        -0.0828   -0.0496    0.0000 C.2       1 <0>        0.00000
     18 O4         -0.2543    0.7574    0.0000 O.2       1 <0>        0.00000
     19 C12        -0.6959   -0.6016    0.0000 C.2       1 <0>        0.00000
     20 C13        -1.4805   -0.3467    0.0000 C.2       1 <0>        0.00000
     21 C14        -2.0936   -0.8987    0.0000 C.3       1 <0>        0.00000
     22 N3         -2.8782   -0.6438    0.0000 N.3       1 <0>        0.00000
     23 C15        -3.4913   -1.1958    0.0000 C.3       1 <0>        0.00000
     24 C16        -4.2759   -0.9409    0.0000 C.3       1 <0>        0.00000
     25 C17        -4.4474   -0.1339    0.0000 C.3       1 <0>        0.00000
     26 C18        -3.8344    0.4181    0.0000 C.3       1 <0>        0.00000
     27 C19        -3.0497    0.1632    0.0000 C.3       1 <0>        0.00000
     28 H1          1.1696    1.5541    0.0000 H         1 <0>        0.00000
     29 H2          1.8896    0.4455    0.0000 H         1 <0>        0.00000
     30 H3          2.1281    0.2722    0.0000 H         1 <0>        0.00000
     31 H4          0.6548    1.4179    0.0000 H         1 <0>        0.00000
     32 H5          2.0838    1.4179    0.0000 H         1 <0>        0.00000
     33 H6          2.0838    2.2429    0.0000 H         1 <0>        0.00000
     34 H7          2.0838    2.2429    0.0000 H         1 <0>        0.00000
     35 H8          2.0838    2.2429    0.0000 H         1 <0>        0.00000
     36 H9          2.7982    1.0054    0.0000 H         1 <0>        0.00000
     37 H10         2.7982    1.0054    0.0000 H         1 <0>        0.00000
     38 H11         2.7982    1.0054    0.0000 H         1 <0>        0.00000
     39 H12         2.8214   -0.0496    0.0000 H         1 <0>        0.00000
     40 H13         2.8824   -1.2147    0.0000 H         1 <0>        0.00000
     41 H14         2.8824   -1.2147    0.0000 H         1 <0>        0.00000
     42 H15         2.8824   -1.2147    0.0000 H         1 <0>        0.00000
     43 H16         1.7818   -1.0892    0.0000 H         1 <0>        0.00000
     44 H17         1.7818   -1.0892    0.0000 H         1 <0>        0.00000
     45 H18         0.9568   -1.0892    0.0000 H         1 <0>        0.00000
     46 H19         0.9568   -1.0892    0.0000 H         1 <0>        0.00000
     47 H20        -0.6959   -0.6016    0.0000 H         1 <0>        0.00000
     48 H21        -1.4805   -0.3467    0.0000 H         1 <0>        0.00000
     49 H22        -2.0936   -0.8987    0.0000 H         1 <0>        0.00000
     50 H23        -2.0936   -0.8987    0.0000 H         1 <0>        0.00000
     51 H24        -3.4913   -1.1958    0.0000 H         1 <0>        0.00000
     52 H25        -3.4913   -1.1958    0.0000 H         1 <0>        0.00000
     53 H26        -4.2759   -0.9409    0.0000 H         1 <0>        0.00000
     54 H27        -4.2759   -0.9409    0.0000 H         1 <0>        0.00000
     55 H28        -4.4474   -0.1339    0.0000 H         1 <0>        0.00000
     56 H29        -4.4474   -0.1339    0.0000 H         1 <0>        0.00000
     57 H30        -3.8344    0.4181    0.0000 H         1 <0>        0.00000
     58 H31        -3.8344    0.4181    0.0000 H         1 <0>        0.00000
     59 H32        -3.0497    0.1632    0.0000 H         1 <0>        0.00000
     60 H33        -3.0497    0.1632    0.0000 H         1 <0>        0.00000
@<TRIPOS>BOND
     1    1    2 2
     2    2    3 1
     3    3    4 1
     4    3    7 1
     5    3   28 1
     6    4    5 1
     7    4    6 1
     8    7    8 1
     9    7   16 1
    10    7   29 1
    11    8    9 1
    12    8   14 1
    13    8   30 1
    14    9   10 1
    15   10   11 2
    16   10   12 2
    17   10   13 1
    18   14   15 1
    19   15   16 1
    20   16   17 am
    21   17   18 2
    22   17   19 1
    23   19   20 2
    24   20   21 1
    25   21   22 1
    26   22   23 1
    27   22   27 1
    28   23   24 1
    29   24   25 1
    30   25   26 1
    31   26   27 1
    32    2   31 1
    33    4   32 1
    34    5   33 1
    35    5   34 1
    36    5   35 1
    37    6   36 1
    38    6   37 1
    39    6   38 1
    40    9   39 1
    41   13   40 1
    42   13   41 1
    43   13   42 1
    44   14   43 1
    45   14   44 1
    46   15   45 1
    47   15   46 1
    48   19   47 1
    49   20   48 1
    50   21   49 1
    51   21   50 1
    52   23   51 1
    53   23   52 1
    54   24   53 1
    55   24   54 1
    56   25   55 1
    57   25   56 1
    58   26   57 1
    59   26   58 1
    60   27   59 1
    61   27   60 1
@<TRIPOS>SUBSTRUCTURE
     1 <0>         1 GROUP 0 A     ****
@<TRIPOS>MOLECULE
PU1
   51    53     1     0     0
SMALL
NO_CHARGES

@<TRIPOS>ATOM
      1 Cl1         0.3038   -2.2271    0.0000 Cl        1 <0>        0.00000
      2 C1         -0.3093   -1.6751    0.0000 C.ar      1 <0>        0.00000
      3 C2         -1.0939   -1.9300    0.0000 C.ar      1 <0>        0.00000
      4 O1         -1.2654   -2.7370    0.0000 O.3       1 <0>        0.00000
      5 C3         -2.0500   -2.9919    0.0000 C.3       1 <0>        0.00000
      6 C4         -1.7070   -1.3780    0.0000 C.ar      1 <0>        0.00000
      7 O2         -2.4916   -1.6329    0.0000 O.3       1 <0>        0.00000
      8 C5         -3.1047   -1.0809    0.0000 C.3       1 <0>        0.00000
      9 C6         -1.5354   -0.5710    0.0000 C.ar      1 <0>        0.00000
     10 O3         -2.1485   -0.0190    0.0000 O.3       1 <0>        0.00000
     11 C7         -1.9770    0.7880    0.0000 C.3       1 <0>        0.00000
     12 C8         -0.7508   -0.3161    0.0000 C.ar      1 <0>        0.00000
     13 C9         -0.1377   -0.8681    0.0000 C.ar      1 <0>        0.00000
     14 C10         0.6469   -0.6132    0.0000 C.3       1 <0>        0.00000
     15 C11         0.8184    0.1938    0.0000 C.ar      1 <0>        0.00000
     16 N1          0.2664    0.8069    0.0000 N.ar      1 <0>        0.00000
     17 C12         0.6789    1.5214    0.0000 C.ar      1 <0>        0.00000
     18 C13         0.4239    2.3060    0.0000 C.ar      1 <0>        0.00000
     19 N2         -0.3830    2.4775    0.0000 N.pl3     1 <0>        0.00000
     20 C14         1.4859    1.3498    0.0000 C.ar      1 <0>        0.00000
     21 N3          2.0379    1.9629    0.0000 N.ar      1 <0>        0.00000
     22 C15         1.7830    2.7476    0.0000 C.ar      1 <0>        0.00000
     23 N4          0.9760    2.9191    0.0000 N.ar      1 <0>        0.00000
     24 N5          1.5721    0.5294    0.0000 N.pl3     1 <0>        0.00000
     25 C16         2.2866    0.1169    0.0000 C.3       1 <0>        0.00000
     26 C17         3.0010    0.5294    0.0000 C.3       1 <0>        0.00000
     27 C18         3.7155    0.1169    0.0000 C.3       1 <0>        0.00000
     28 C19         4.4300    0.5294    0.0000 C.1       1 <0>        0.00000
     29 C20         5.1444    0.9419    0.0000 C.1       1 <0>        0.00000
     30 F1          2.3350    3.3607    0.0000 F         1 <0>        0.00000
     31 H1         -2.0500   -2.9919    0.0000 H         1 <0>        0.00000
     32 H2         -2.0500   -2.9919    0.0000 H         1 <0>        0.00000
     33 H3         -2.0500   -2.9919    0.0000 H         1 <0>        0.00000
     34 H4         -3.1047   -1.0809    0.0000 H         1 <0>        0.00000
     35 H5         -3.1047   -1.0809    0.0000 H         1 <0>        0.00000
     36 H6         -3.1047   -1.0809    0.0000 H         1 <0>        0.00000
     37 H7         -1.9770    0.7880    0.0000 H         1 <0>        0.00000
     38 H8         -1.9770    0.7880    0.0000 H         1 <0>        0.00000
     39 H9         -1.9770    0.7880    0.0000 H         1 <0>        0.00000
     40 H10        -0.7508   -0.3161    0.0000 H         1 <0>        0.00000
     41 H11         0.6469   -0.6132    0.0000 H         1 <0>        0.00000
     42 H12         0.6469   -0.6132    0.0000 H         1 <0>        0.00000
     43 H13        -0.3830    2.4775    0.0000 H         1 <0>        0.00000
     44 H14        -0.3830    2.4775    0.0000 H         1 <0>        0.00000
     45 H15         2.2866    0.1169    0.0000 H         1 <0>        0.00000
     46 H16         2.2866    0.1169    0.0000 H         1 <0>        0.00000
     47 H17         3.0010    0.5294    0.0000 H         1 <0>        0.00000
     48 H18         3.0010    0.5294    0.0000 H         1 <0>        0.00000
     49 H19         3.7155    0.1169    0.0000 H         1 <0>        0.00000
     50 H20         3.7155    0.1169    0.0000 H         1 <0>        0.00000
     51 H21         5.1444    0.9419    0.0000 H         1 <0>        0.00000
@<TRIPOS>BOND
     1    1    2 1
     2    2    3 ar
     3    2   13 ar
     4    3    4 1
     5    3    6 ar
     6    4    5 1
     7    6    7 1
     8    6    9 ar
     9    7    8 1
    10    9   10 1
    11    9   12 ar
    12   10   11 1
    13   12   13 ar
    14   13   14 1
    15   14   15 1
    16   15   16 2
    17   15   24 1
    18   16   17 1
    19   17   18 ar
    20   17   20 ar
    21   18   19 1
    22   18   23 ar
    23   20   21 ar
    24   20   24 1
    25   21   22 ar
    26   22   23 ar
    27   22   30 1
    28   24   25 1
    29   25   26 1
    30   26   27 1
    31   27   28 1
    32   28   29 3
    33    5   31 1
    34    5   32 1
    35    5   33 1
    36    8   34 1
    37    8   35 1
    38    8   36 1
    39   11   37 1
    40   11   38 1
    41   11   39 1
    42   12   40 1
    43   14   41 1
    44   14   42 1
    45   19   43 1
    46   19   44 1
    47   25   45 1
    48   25   46 1
    49   26   47 1
    50   26   48 1
    51   27   49 1
    52   27   50 1
    53   29   51 1
@<TRIPOS>SUBSTRUCTURE
     1 <0>         1 GROUP 0 A     ****
@<TRIPOS>MOLECULE
744
   28    29     1     0     0
SMALL
NO_CHARGES

@<TRIPOS>ATOM
      1 S1          3.8597    1.1874    0.0000 S.3       1 <0>        0.00000
      2 O1          5.1662   -0.9055    0.0000 O.3       1 <0>        0.00000
      3 O2          6.8162    0.5235    0.0000 O.2       1 <0>        0.00000
      4 N1          5.5787   -0.1910    0.0000 N.am      1 <0>        0.00000
      5 N2          6.8162   -0.9055    0.0000 N.am      1 <0>        0.00000
      6 C1          5.1662    0.5235    0.0000 C.3       1 <0>        0.00000
      7 C2          4.3412    0.5235    0.0000 C.ar      1 <0>        0.00000
      8 C3          3.0791    0.1110    0.0000 C.ar      1 <0>        0.00000
      9 C4          3.8597   -0.1404    0.0000 C.ar      1 <0>        0.00000
     10 C5          3.0791    0.9360    0.0000 C.ar      1 <0>        0.00000
     11 C6          5.5787    1.2379    0.0000 C.3       1 <0>        0.00000
     12 C7          2.3645   -0.3015    0.0000 C.ar      1 <0>        0.00000
     13 C8          2.3645    1.3485    0.0000 C.ar      1 <0>        0.00000
     14 C9          1.6500    0.1110    0.0000 C.ar      1 <0>        0.00000
     15 C10         1.6500    0.9360    0.0000 C.ar      1 <0>        0.00000
     16 C11         6.4037   -0.1910    0.0000 C.2       1 <0>        0.00000
     17 H1          5.1662   -0.9055    0.0000 H         1 <0>        0.00000
     18 H2          6.8162   -0.9055    0.0000 H         1 <0>        0.00000
     19 H3          6.8162   -0.9055    0.0000 H         1 <0>        0.00000
     20 H4          5.1662    0.5235    0.0000 H         1 <0>        0.00000
     21 H5          3.8597   -0.1404    0.0000 H         1 <0>        0.00000
     22 H6          5.5787    1.2379    0.0000 H         1 <0>        0.00000
     23 H7          5.5787    1.2379    0.0000 H         1 <0>        0.00000
     24 H8          5.5787    1.2379    0.0000 H         1 <0>        0.00000
     25 H9          2.3645   -0.3015    0.0000 H         1 <0>        0.00000
     26 H10         2.3645    1.3485    0.0000 H         1 <0>        0.00000
     27 H11         1.6500    0.1110    0.0000 H         1 <0>        0.00000
     28 H12         1.6500    0.9360    0.0000 H         1 <0>        0.00000
@<TRIPOS>BOND
     1    1    7 1
     2    1   10 1
     3    2    4 1
     4    3   16 2
     5    4    6 1
     6    4   16 am
     7    5   16 am
     8    6    7 1
     9    6   11 1
    10    7    9 2
    11    8    9 1
    12    8   10 ar
    13    8   12 ar
    14   10   13 ar
    15   12   14 ar
    16   13   15 ar
    17   14   15 ar
    18    2   17 1
    19    5   18 1
    20    5   19 1
    21    6   20 1
    22    9   21 1
    23   11   22 1
    24   11   23 1
    25   11   24 1
    26   12   25 1
    27   13   26 1
    28   14   27 1
    29   15   28 1
@<TRIPOS>SUBSTRUCTURE
     1 <0>         1 GROUP 0 A     ****
@<TRIPOS>MOLECULE
*****
   56    59     1     0     0
SMALL
NO_CHARGES

@<TRIPOS>ATOM
      1 C1         -1.4289   -1.6500    0.0000 C.3       1 <0>        0.00000
      2 C2         -0.7145   -1.2375    0.0000 C.ar      1 <0>        0.00000
      3 C3          0.0000   -1.6500    0.0000 C.ar      1 <0>        0.00000
      4 C4          0.7145   -1.2375    0.0000 C.ar      1 <0>        0.00000
      5 C5          0.7145   -0.4125    0.0000 C.ar      1 <0>        0.00000
      6 C6          0.0000    0.0000    0.0000 C.ar      1 <0>        0.00000
      7 C7         -0.7145   -0.4125    0.0000 C.ar      1 <0>        0.00000
      8 C8         -1.4289    0.0000    0.0000 C.3       1 <0>        0.00000
      9 C9         -1.9592    0.6320    0.0000 C.3       1 <0>        0.00000
     10 C10        -1.1468    0.7752    0.0000 C.3       1 <0>        0.00000
     11 C11        -1.9592   -0.6320    0.0000 C.ar      1 <0>        0.00000
     12 C12        -1.6771   -1.4072    0.0000 C.ar      1 <0>        0.00000
     13 C13        -2.2074   -2.0392    0.0000 C.ar      1 <0>        0.00000
     14 C14        -3.0198   -1.8960    0.0000 C.ar      1 <0>        0.00000
     15 C15        -3.3020   -1.1207    0.0000 C.ar      1 <0>        0.00000
     16 N1         -2.7717   -0.4887    0.0000 N.ar      1 <0>        0.00000
     17 C16        -3.5501   -2.5279    0.0000 C.2       1 <0>        0.00000
     18 O1         -4.3626   -2.3847    0.0000 O.3       1 <0>        0.00000
     19 O2         -3.2680   -3.3032    0.0000 O.2       1 <0>        0.00000
     20 C17         1.4289    0.0000    0.0000 C.3       1 <0>        0.00000
     21 C18         0.8986    0.6320    0.0000 C.3       1 <0>        0.00000
     22 C19         1.9592    0.6320    0.0000 C.3       1 <0>        0.00000
     23 C20         2.1434   -0.4125    0.0000 C.3       1 <0>        0.00000
     24 C21         2.1434   -1.2375    0.0000 C.3       1 <0>        0.00000
     25 C22         1.4289   -1.6500    0.0000 C.3       1 <0>        0.00000
     26 C23         1.8163   -2.3784    0.0000 C.3       1 <0>        0.00000
     27 C24         1.0416   -2.3784    0.0000 C.3       1 <0>        0.00000
     28 H1         -1.4289   -1.6500    0.0000 H         1 <0>        0.00000
     29 H2         -1.4289   -1.6500    0.0000 H         1 <0>        0.00000
     30 H3         -1.4289   -1.6500    0.0000 H         1 <0>        0.00000
     31 H4          0.0000   -1.6500    0.0000 H         1 <0>        0.00000
     32 H5          0.0000    0.0000    0.0000 H         1 <0>        0.00000
     33 H6         -1.9592    0.6320    0.0000 H         1 <0>        0.00000
     34 H7         -1.9592    0.6320    0.0000 H         1 <0>        0.00000
     35 H8         -1.1468    0.7752    0.0000 H         1 <0>        0.00000
     36 H9         -1.1468    0.7752    0.0000 H         1 <0>        0.00000
     37 H10        -1.6771   -1.4072    0.0000 H         1 <0>        0.00000
     38 H11        -2.2074   -2.0392    0.0000 H         1 <0>        0.00000
     39 H12        -3.3020   -1.1207    0.0000 H         1 <0>        0.00000
     40 H13        -4.3626   -2.3847    0.0000 H         1 <0>        0.00000
     41 H14         0.8986    0.6320    0.0000 H         1 <0>        0.00000
     42 H15         0.8986    0.6320    0.0000 H         1 <0>        0.00000
     43 H16         0.8986    0.6320    0.0000 H         1 <0>        0.00000
     44 H17         1.9592    0.6320    0.0000 H         1 <0>        0.00000
     45 H18         1.9592    0.6320    0.0000 H         1 <0>        0.00000
     46 H19         1.9592    0.6320    0.0000 H         1 <0>        0.00000
     47 H20         2.1434   -0.4125    0.0000 H         1 <0>        0.00000
     48 H21         2.1434   -0.4125    0.0000 H         1 <0>        0.00000
     49 H22         2.1434   -1.2375    0.0000 H         1 <0>        0.00000
     50 H23         2.1434   -1.2375    0.0000 H         1 <0>        0.00000
     51 H24         1.8163   -2.3784    0.0000 H         1 <0>        0.00000
     52 H25         1.8163   -2.3784    0.0000 H         1 <0>        0.00000
     53 H26         1.8163   -2.3784    0.0000 H         1 <0>        0.00000
     54 H27         1.0416   -2.3784    0.0000 H         1 <0>        0.00000
     55 H28         1.0416   -2.3784    0.0000 H         1 <0>        0.00000
     56 H29         1.0416   -2.3784    0.0000 H         1 <0>        0.00000
@<TRIPOS>BOND
     1    1    2 1
     2    2    3 ar
     3    3    4 ar
     4    4    5 ar
     5    5    6 ar
     6    6    7 ar
     7    2    7 ar
     8    7    8 1
     9    8    9 1
    10    9   10 1
    11    8   10 1
    12    8   11 1
    13   11   12 ar
    14   12   13 ar
    15   13   14 ar
    16   14   15 ar
    17   15   16 ar
    18   11   16 ar
    19   14   17 1
    20   17   18 1
    21   17   19 2
    22    5   20 1
    23   20   21 1
    24   20   22 1
    25   20   23 1
    26   23   24 1
    27   24   25 1
    28    4   25 1
    29   25   26 1
    30   25   27 1
    31    1   28 1
    32    1   29 1
    33    1   30 1
    34    3   31 1
    35    6   32 1
    36    9   33 1
    37    9   34 1
    38   10   35 1
    39   10   36 1
    40   12   37 1
    41   13   38 1
    42   15   39 1
    43   18   40 1
    44   21   41 1
    45   21   42 1
    46   21   43 1
    47   22   44 1
    48   22   45 1
    49   22   46 1
    50   23   47 1
    51   23   48 1
    52   24   49 1
    53   24   50 1
    54   26   51 1
    55   26   52 1
    56   26   53 1
    57   27   54 1
    58   27   55 1
    59   27   56 1
@<TRIPOS>SUBSTRUCTURE
     1 <0>         1 GROUP 0 A     ****
@<TRIPOS>MOLECULE
*****
   36    37     1     0     0
SMALL
NO_CHARGES

@<TRIPOS>ATOM
      1 N1          0.5420    0.2323    0.0000 N.am      1 <0>        0.00000
      2 C1          1.2564   -0.1802    0.0000 C.2       1 <0>        0.00000
      3 O1          1.9709    0.2323    0.0000 O.2       1 <0>        0.00000
      4 C2          1.2564   -1.0052    0.0000 C.2       1 <0>        0.00000
      5 C3          1.9239   -1.4901    0.0000 C.2       1 <0>        0.00000
      6 O2          2.7085   -1.2352    0.0000 O.3       1 <0>        0.00000
      7 N2          1.6689   -2.2748    0.0000 N.pl3     1 <0>        0.00000
      8 C4          0.8439   -2.2748    0.0000 C.3       1 <0>        0.00000
      9 N3          0.5890   -1.4901    0.0000 N.4       1 <0>        0.00000
     10 C5          2.1538   -2.9422    0.0000 C.3       1 <0>        0.00000
     11 O3          2.9788   -2.9422    0.0000 O.3       1 <0>        0.00000
     12 C6          3.2338   -3.7268    0.0000 C.3       1 <0>        0.00000
     13 C7          4.0184   -3.9818    0.0000 C.3       1 <0>        0.00000
     14 O4          4.1899   -4.7887    0.0000 O.3       1 <0>        0.00000
     15 P1          4.9746   -5.0437    0.0000 P.3       1 <0>        0.00000
     16 O5          5.7592   -5.2986    0.0000 O.3       1 <0>        0.00000
     17 O6          4.7196   -5.8283    0.0000 O.3       1 <0>        0.00000
     18 O7          5.2295   -4.2590    0.0000 O.2       1 <0>        0.00000
     19 C8          2.5663   -4.2117    0.0000 C.3       1 <0>        0.00000
     20 O8          2.5663   -5.0367    0.0000 O.3       1 <0>        0.00000
     21 C9          1.8989   -3.7268    0.0000 C.3       1 <0>        0.00000
     22 O9          1.1143   -3.9818    0.0000 O.3       1 <0>        0.00000
     23 H1          0.5420    0.2323    0.0000 H         1 <0>        0.00000
     24 H2          0.5420    0.2323    0.0000 H         1 <0>        0.00000
     25 H3          0.8439   -2.2748    0.0000 H         1 <0>        0.00000
     26 H4          0.8439   -2.2748    0.0000 H         1 <0>        0.00000
     27 H5          0.5890   -1.4901    0.0000 H         1 <0>        0.00000
     28 H6          0.5890   -1.4901    0.0000 H         1 <0>        0.00000
     29 H7          2.1538   -2.9422    0.0000 H         1 <0>        0.00000
     30 H8          3.2338   -3.7268    0.0000 H         1 <0>        0.00000
     31 H9          4.0184   -3.9818    0.0000 H         1 <0>        0.00000
     32 H10         4.0184   -3.9818    0.0000 H         1 <0>        0.00000
     33 H11         2.5663   -4.2117    0.0000 H         1 <0>        0.00000
     34 H12         2.5663   -5.0367    0.0000 H         1 <0>        0.00000
     35 H13         1.8989   -3.7268    0.0000 H         1 <0>        0.00000
     36 H14         1.1143   -3.9818    0.0000 H         1 <0>        0.00000
@<TRIPOS>BOND
     1    1    2 am
     2    2    3 2
     3    2    4 1
     4    4    5 2
     5    5    6 1
     6    5    7 1
     7    7    8 1
     8    8    9 1
     9    4    9 1
    10    7   10 1
    11   10   11 1
    12   11   12 1
    13   12   13 1
    14   13   14 1
    15   14   15 1
    16   15   16 1
    17   15   17 1
    18   15   18 2
    19   12   19 1
    20   19   20 1
    21   19   21 1
    22   10   21 1
    23   21   22 1
    24    1   23 1
    25    1   24 1
    26    8   25 1
    27    8   26 1
    28    9   27 1
    29    9   28 1
    30   10   29 1
    31   12   30 1
    32   13   31 1
    33   13   32 1
    34   19   33 1
    35   20   34 1
    36   21   35 1
    37   22   36 1
@<TRIPOS>SUBSTRUCTURE
     1 <0>         1 GROUP 0 A     ****
@<TRIPOS>MOLECULE
TGN
   45    47     1     0     0
SMALL
NO_CHARGES

@<TRIPOS>ATOM
      1 C1          0.3512    0.9886    0.0000 C.3       1 <0>        0.00000
      2 C2         -0.5775    0.9731    0.0000 C.3       1 <0>        0.00000
      3 N1         -1.1382    1.4130    0.0000 N.3       1 <0>        0.00000
      4 C3         -1.5608    2.1215    0.0000 C.3       1 <0>        0.00000
      5 C4         -0.8981    0.2645    0.0000 C.3       1 <0>        0.00000
      6 C5         -1.5184   -0.1124    0.0000 C.3       1 <0>        0.00000
      7 C6         -0.9985    0.5998    0.0000 C.3       1 <0>        0.00000
      8 C7         -0.0268    0.5998    0.0000 C.3       1 <0>        0.00000
      9 C8          0.4894    0.1712    0.0000 C.3       1 <0>        0.00000
     10 O1          0.9012   -0.5436    0.0000 O.3       1 <0>        0.00000
     11 P1          0.4880   -1.2577    0.0000 P.3       1 <0>        0.00000
     12 O2         -0.2261   -0.8445    0.0000 O.2       1 <0>        0.00000
     13 O3          1.2021   -1.6708    0.0000 O.3       1 <0>        0.00000
     14 C9          0.0748   -1.9717    0.0000 C.ar      1 <0>        0.00000
     15 C10         0.4866   -2.6866    0.0000 C.ar      1 <0>        0.00000
     16 C11        -0.7502   -1.9709    0.0000 C.ar      1 <0>        0.00000
     17 C12         0.0734   -3.4006    0.0000 C.ar      1 <0>        0.00000
     18 C13        -0.7516   -3.3998    0.0000 C.ar      1 <0>        0.00000
     19 C14        -1.1634   -2.6849    0.0000 C.ar      1 <0>        0.00000
     20 C15         0.8784    1.6231    0.0000 C.2       1 <0>        0.00000
     21 O4          1.6915    1.4838    0.0000 O.2       1 <0>        0.00000
     22 O5          0.5924    2.3970    0.0000 O.3       1 <0>        0.00000
     23 C16         1.1198    3.0315    0.0000 C.3       1 <0>        0.00000
     24 H1          0.0987    1.5152    0.0000 H         1 <0>        0.00000
     25 H2         -0.7119    1.5414    0.0000 H         1 <0>        0.00000
     26 H3         -1.2630    1.1205    0.0000 H         1 <0>        0.00000
     27 H4          1.0389    0.3687    0.0000 H         1 <0>        0.00000
     28 H5         -1.5608    2.1215    0.0000 H         1 <0>        0.00000
     29 H6         -1.5608    2.1215    0.0000 H         1 <0>        0.00000
     30 H7         -1.5608    2.1215    0.0000 H         1 <0>        0.00000
     31 H8         -0.8981    0.2645    0.0000 H         1 <0>        0.00000
     32 H9         -0.8981    0.2645    0.0000 H         1 <0>        0.00000
     33 H10        -1.5184   -0.1124    0.0000 H         1 <0>        0.00000
     34 H11        -1.5184   -0.1124    0.0000 H         1 <0>        0.00000
     35 H12        -0.0268    0.5998    0.0000 H         1 <0>        0.00000
     36 H13        -0.0268    0.5998    0.0000 H         1 <0>        0.00000
     37 H14         1.2021   -1.6708    0.0000 H         1 <0>        0.00000
     38 H15         0.4866   -2.6866    0.0000 H         1 <0>        0.00000
     39 H16        -0.7502   -1.9709    0.0000 H         1 <0>        0.00000
     40 H17         0.0734   -3.4006    0.0000 H         1 <0>        0.00000
     41 H18        -0.7516   -3.3998    0.0000 H         1 <0>        0.00000
     42 H19        -1.1634   -2.6849    0.0000 H         1 <0>        0.00000
     43 H20         1.1198    3.0315    0.0000 H         1 <0>        0.00000
     44 H21         1.1198    3.0315    0.0000 H         1 <0>        0.00000
     45 H22         1.1198    3.0315    0.0000 H         1 <0>        0.00000
@<TRIPOS>BOND
     1    1    2 1
     2    1    9 1
     3    1   20 1
     4    1   24 1
     5    2    3 1
     6    2    5 1
     7    2   25 1
     8    3    4 1
     9    3    7 1
    10    5    6 1
    11    6    7 1
    12    7    8 1
    13    7   26 1
    14    8    9 1
    15    9   10 1
    16    9   27 1
    17   10   11 1
    18   11   12 2
    19   11   13 1
    20   11   14 1
    21   14   15 ar
    22   14   16 ar
    23   15   17 ar
    24   16   19 ar
    25   17   18 ar
    26   18   19 ar
    27   20   21 2
    28   20   22 1
    29   22   23 1
    30    4   28 1
    31    4   29 1
    32    4   30 1
    33    5   31 1
    34    5   32 1
    35    6   33 1
    36    6   34 1
    37    8   35 1
    38    8   36 1
    39   13   37 1
    40   15   38 1
    41   16   39 1
    42   17   40 1
    43   18   41 1
    44   19   42 1
    45   23   43 1
    46   23   44 1
    47   23   45 1
@<TRIPOS>SUBSTRUCTURE
     1 <0>         1 GROUP 0 A     ****
@<TRIPOS>MOLECULE
TH4
   25    26     1     0     0
SMALL
NO_CHARGES

@<TRIPOS>ATOM
      1 C1          1.6025    1.0844    0.0000 C.ar      1 <0>        0.00000
      2 C2          1.7740    1.8914    0.0000 C.ar      1 <0>        0.00000
      3 C3          1.1609    2.4434    0.0000 C.ar      1 <0>        0.00000
      4 Cl1         1.3324    3.2504    0.0000 Cl        1 <0>        0.00000
      5 N1          0.3763    2.1885    0.0000 N.ar      1 <0>        0.00000
      6 C4          0.2048    1.3815    0.0000 C.ar      1 <0>        0.00000
      7 C5          0.8179    0.8295    0.0000 C.ar      1 <0>        0.00000
      8 C6          0.6463    0.0225    0.0000 C.3       1 <0>        0.00000
      9 N2         -0.1383   -0.2325    0.0000 N.pl3     1 <0>        0.00000
     10 C7         -0.8057    0.2525    0.0000 C.3       1 <0>        0.00000
     11 C8         -1.4732   -0.2325    0.0000 C.3       1 <0>        0.00000
     12 S1         -1.2182   -1.0171    0.0000 S.3       1 <0>        0.00000
     13 C9         -0.3932   -1.0171    0.0000 C.2       1 <0>        0.00000
     14 N3          0.0917   -1.6845    0.0000 N.2       1 <0>        0.00000
     15 C10        -0.2439   -2.4382    0.0000 C.1       1 <0>        0.00000
     16 N4         -0.5794   -3.1919    0.0000 N.1       1 <0>        0.00000
     17 H1          1.6025    1.0844    0.0000 H         1 <0>        0.00000
     18 H2          1.7740    1.8914    0.0000 H         1 <0>        0.00000
     19 H3          0.2048    1.3815    0.0000 H         1 <0>        0.00000
     20 H4          0.6463    0.0225    0.0000 H         1 <0>        0.00000
     21 H5          0.6463    0.0225    0.0000 H         1 <0>        0.00000
     22 H6         -0.8057    0.2525    0.0000 H         1 <0>        0.00000
     23 H7         -0.8057    0.2525    0.0000 H         1 <0>        0.00000
     24 H8         -1.4732   -0.2325    0.0000 H         1 <0>        0.00000
     25 H9         -1.4732   -0.2325    0.0000 H         1 <0>        0.00000
@<TRIPOS>BOND
     1    1    7 ar
     2    1    2 ar
     3    2    3 ar
     4    3    5 ar
     5    3    4 1
     6    5    6 ar
     7    6    7 ar
     8    7    8 1
     9    8    9 1
    10    9   13 1
    11    9   10 1
    12   10   11 1
    13   11   12 1
    14   12   13 1
    15   13   14 2
    16   14   15 1
    17   15   16 3
    18    1   17 1
    19    2   18 1
    20    6   19 1
    21    8   20 1
    22    8   21 1
    23   10   22 1
    24   10   23 1
    25   11   24 1
    26   11   25 1
@<TRIPOS>SUBSTRUCTURE
     1 <0>         1 GROUP 0 A     ****
@<TRIPOS>MOLECULE
*****
   19    20     1     0     0
SMALL
NO_CHARGES

@<TRIPOS>ATOM
      1 C1         -1.7829    0.4144    0.0000 C.ar      1 <0>        0.00000
      2 C2         -1.7829   -0.4130    0.0000 C.ar      1 <0>        0.00000
      3 C3         -1.0705   -0.8244    0.0000 C.ar      1 <0>        0.00000
      4 C4         -1.0705    0.8304    0.0000 C.ar      1 <0>        0.00000
      5 C5         -0.3533    0.4144    0.0000 C.ar      1 <0>        0.00000
      6 C6         -0.3568   -0.4130    0.0000 C.ar      1 <0>        0.00000
      7 N1          0.3538   -0.8273    0.0000 N.ar      1 <0>        0.00000
      8 C7          1.0727   -0.4190    0.0000 C.ar      1 <0>        0.00000
      9 N2          1.0762    0.4084    0.0000 N.ar      1 <0>        0.00000
     10 N3          0.3608    0.8273    0.0000 N.ar      1 <0>        0.00000
     11 N4          1.7829   -0.8343    0.0000 N.pl3     1 <0>        0.00000
     12 O1          0.3632    1.6500    0.0000 O.3       1 <0>        0.00000
     13 O2          0.3492   -1.6500    0.0000 O.3       1 <0>        0.00000
     14 H1         -1.7829    0.4144    0.0000 H         1 <0>        0.00000
     15 H2         -1.7829   -0.4130    0.0000 H         1 <0>        0.00000
     16 H3         -1.0705   -0.8244    0.0000 H         1 <0>        0.00000
     17 H4         -1.0705    0.8304    0.0000 H         1 <0>        0.00000
     18 H5          1.7829   -0.8343    0.0000 H         1 <0>        0.00000
     19 H6          1.7829   -0.8343    0.0000 H         1 <0>        0.00000
@<TRIPOS>BOND
     1    1    4 ar
     2    2    3 ar
     3    3    6 ar
     4    4    5 ar
     5    5   10 ar
     6    6    7 ar
     7    7    8 ar
     8    8    9 ar
     9    9   10 ar
    10    5    6 ar
    11    8   11 1
    12   10   12 1
    13    1    2 ar
    14    7   13 1
    15    1   14 1
    16    2   15 1
    17    3   16 1
    18    4   17 1
    19   11   18 1
    20   11   19 1
@<TRIPOS>SUBSTRUCTURE
     1 <0>         1 GROUP 0 A     ****
@<TRIPOS>MOLECULE
THN
   37    38     1     0     0
SMALL
NO_CHARGES

@<TRIPOS>ATOM
      1 S1         -1.7652    0.4533    0.0000 S.3       1 <0>        0.00000
      2 C1         -2.1777    1.1678    0.0000 C.3       1 <0>        0.00000
      3 C2         -1.7652    1.8823    0.0000 C.2       1 <0>        0.00000
      4 C3         -2.1777    2.5968    0.0000 C.2       1 <0>        0.00000
      5 C4         -0.9402    1.8823    0.0000 C.3       1 <0>        0.00000
      6 C5         -0.5277    2.5968    0.0000 C.2       1 <0>        0.00000
      7 O1          0.2973    2.5968    0.0000 O.3       1 <0>        0.00000
      8 O2         -0.9402    3.3112    0.0000 O.2       1 <0>        0.00000
      9 N1         -0.5277    1.1678    0.0000 N.2       1 <0>        0.00000
     10 C6         -0.9402    0.4533    0.0000 C.2       1 <0>        0.00000
     11 C7         -0.5277   -0.2611    0.0000 C.3       1 <0>        0.00000
     12 C8         -0.9402   -0.9756    0.0000 C.2       1 <0>        0.00000
     13 O3         -0.5277   -1.6901    0.0000 O.2       1 <0>        0.00000
     14 O4         -1.7652   -0.9756    0.0000 O.3       1 <0>        0.00000
     15 N2          0.2973   -0.2611    0.0000 N.am      1 <0>        0.00000
     16 C9          0.7098   -0.9756    0.0000 C.2       1 <0>        0.00000
     17 O5          0.2973   -1.6901    0.0000 O.2       1 <0>        0.00000
     18 C10         1.5348   -0.9756    0.0000 C.3       1 <0>        0.00000
     19 C11         1.9473   -1.6901    0.0000 C.ar      1 <0>        0.00000
     20 C12         2.7678   -1.7763    0.0000 C.ar      1 <0>        0.00000
     21 C13         2.9393   -2.5833    0.0000 C.ar      1 <0>        0.00000
     22 C14         2.2249   -2.9958    0.0000 C.ar      1 <0>        0.00000
     23 S2          1.6118   -2.4437    0.0000 S.3       1 <0>        0.00000
     24 H1         -1.2321    2.3880    0.0000 H         1 <0>        0.00000
     25 H2         -1.1116   -0.2611    0.0000 H         1 <0>        0.00000
     26 H3         -2.1777    1.1678    0.0000 H         1 <0>        0.00000
     27 H4         -2.1777    1.1678    0.0000 H         1 <0>        0.00000
     28 H5         -2.1777    2.5968    0.0000 H         1 <0>        0.00000
     29 H6         -2.1777    2.5968    0.0000 H         1 <0>        0.00000
     30 H7          0.2973    2.5968    0.0000 H         1 <0>        0.00000
     31 H8         -1.7652   -0.9756    0.0000 H         1 <0>        0.00000
     32 H9          0.2973   -0.2611    0.0000 H         1 <0>        0.00000
     33 H10         1.5348   -0.9756    0.0000 H         1 <0>        0.00000
     34 H11         1.5348   -0.9756    0.0000 H         1 <0>        0.00000
     35 H12         2.7678   -1.7763    0.0000 H         1 <0>        0.00000
     36 H13         2.9393   -2.5833    0.0000 H         1 <0>        0.00000
     37 H14         2.2249   -2.9958    0.0000 H         1 <0>        0.00000
@<TRIPOS>BOND
     1    1    2 1
     2    1   10 1
     3    2    3 1
     4    3    4 2
     5    3    5 1
     6    5    6 1
     7    5    9 1
     8    5   24 1
     9    6    7 1
    10    6    8 2
    11    9   10 2
    12   10   11 1
    13   11   12 1
    14   11   15 1
    15   11   25 1
    16   12   13 2
    17   12   14 1
    18   15   16 am
    19   16   17 2
    20   16   18 1
    21   18   19 1
    22   19   20 2
    23   19   23 1
    24   20   21 1
    25   21   22 2
    26   22   23 1
    27    2   26 1
    28    2   27 1
    29    4   28 1
    30    4   29 1
    31    7   30 1
    32   14   31 1
    33   15   32 1
    34   18   33 1
    35   18   34 1
    36   20   35 1
    37   21   36 1
    38   22   37 1
@<TRIPOS>SUBSTRUCTURE
     1 <0>         1 GROUP 0 A     ****
@<TRIPOS>MOLECULE
*****
   30    30     1     0     0
SMALL
NO_CHARGES

@<TRIPOS>ATOM
      1 N1         -0.7066    1.0881    0.0000 N.3       1 <0>        0.00000
      2 C1         -0.7066    0.2631    0.0000 C.3       1 <0>        0.00000
      3 C2         -1.4211   -0.1494    0.0000 C.3       1 <0>        0.00000
      4 S1         -2.1356    0.2631    0.0000 S.3       1 <0>        0.00000
      5 C3         -2.8501   -0.1494    0.0000 C.3       1 <0>        0.00000
      6 N2         -2.9363   -0.9698    0.0000 N.3       1 <0>        0.00000
      7 O1         -3.7433   -1.1414    0.0000 O.3       1 <0>        0.00000
      8 C4         -4.1558   -0.4269    0.0000 C.2       1 <0>        0.00000
      9 C5         -3.6037    0.1862    0.0000 C.2       1 <0>        0.00000
     10 C6         -4.9762   -0.3407    0.0000 C.3       1 <0>        0.00000
     11 N3         -5.3118    0.4130    0.0000 N.3       1 <0>        0.00000
     12 C7         -5.4612   -1.0081    0.0000 C.2       1 <0>        0.00000
     13 O2         -6.2816   -0.9219    0.0000 O.3       1 <0>        0.00000
     14 O3         -5.1256   -1.7618    0.0000 O.2       1 <0>        0.00000
     15 C8          0.0078   -0.1494    0.0000 C.2       1 <0>        0.00000
     16 O4          0.7223    0.2631    0.0000 O.3       1 <0>        0.00000
     17 O5          0.0078   -0.9744    0.0000 O.2       1 <0>        0.00000
     18 H1         -0.7066    1.0881    0.0000 H         1 <0>        0.00000
     19 H2         -0.7066    1.0881    0.0000 H         1 <0>        0.00000
     20 H3         -0.7066    0.2631    0.0000 H         1 <0>        0.00000
     21 H4         -1.4211   -0.1494    0.0000 H         1 <0>        0.00000
     22 H5         -1.4211   -0.1494    0.0000 H         1 <0>        0.00000
     23 H6         -2.8501   -0.1494    0.0000 H         1 <0>        0.00000
     24 H7         -2.9363   -0.9698    0.0000 H         1 <0>        0.00000
     25 H8         -3.6037    0.1862    0.0000 H         1 <0>        0.00000
     26 H9         -4.9762   -0.3407    0.0000 H         1 <0>        0.00000
     27 H10        -5.3118    0.4130    0.0000 H         1 <0>        0.00000
     28 H11        -5.3118    0.4130    0.0000 H         1 <0>        0.00000
     29 H12        -6.2816   -0.9219    0.0000 H         1 <0>        0.00000
     30 H13         0.7223    0.2631    0.0000 H         1 <0>        0.00000
@<TRIPOS>BOND
     1    1    2 1
     2    2    3 1
     3    3    4 1
     4    4    5 1
     5    5    6 1
     6    6    7 1
     7    7    8 1
     8    8    9 2
     9    5    9 1
    10    8   10 1
    11   10   11 1
    12   10   12 1
    13   12   13 1
    14   12   14 2
    15    2   15 1
    16   15   16 1
    17   15   17 2
    18    1   18 1
    19    1   19 1
    20    2   20 1
    21    3   21 1
    22    3   22 1
    23    5   23 1
    24    6   24 1
    25    9   25 1
    26   10   26 1
    27   11   27 1
    28   11   28 1
    29   13   29 1
    30   16   30 1
@<TRIPOS>SUBSTRUCTURE
     1 <0>         1 GROUP 0 A     ****
@<TRIPOS>MOLECULE
35A
   65    67     1     0     0
SMALL
NO_CHARGES

@<TRIPOS>ATOM
      1 C1         -0.9931    0.7445    0.0000 C.ar      1 <0>        0.00000
      2 C2         -0.6095    0.0141    0.0000 C.ar      1 <0>        0.00000
      3 C3          4.1262    0.0141    0.0000 C.ar      1 <0>        0.00000
      4 C4          3.7426    0.7445    0.0000 C.ar      1 <0>        0.00000
      5 O1          0.2036    2.0313    0.0000 O.3       1 <0>        0.00000
      6 C5         -0.5001    1.6008    0.0000 C.3       1 <0>        0.00000
      7 C6          2.9183    0.7775    0.0000 C.ar      1 <0>        0.00000
      8 C7          2.4877    1.4812    0.0000 C.3       1 <0>        0.00000
      9 C8          1.8206    1.9666    0.0000 C.3       1 <0>        0.00000
     10 C9          3.6855   -0.6833    0.0000 C.ar      1 <0>        0.00000
     11 C10         2.8611   -0.6503    0.0000 C.ar      1 <0>        0.00000
     12 C11         2.4775    0.0800    0.0000 C.ar      1 <0>        0.00000
     13 C12         0.0474   -1.8725    0.0000 C.3       1 <0>        0.00000
     14 C13         0.8495   -2.0657    0.0000 C.3       1 <0>        0.00000
     15 C14         1.6644   -1.9372    0.0000 C.3       1 <0>        0.00000
     16 C15         2.3681   -1.5066    0.0000 C.3       1 <0>        0.00000
     17 C16        -1.0502   -0.6833    0.0000 C.ar      1 <0>        0.00000
     18 C17        -0.6197   -1.3871    0.0000 C.3       1 <0>        0.00000
     19 N1         -1.8746   -0.6503    0.0000 N.ar      1 <0>        0.00000
     20 C18        -1.8174    0.7775    0.0000 C.ar      1 <0>        0.00000
     21 C19        -2.2582    0.0800    0.0000 C.ar      1 <0>        0.00000
     22 N2         -3.0825    0.1130    0.0000 N.pl3     1 <0>        0.00000
     23 S1         -3.5233   -0.5844    0.0000 S.o2      1 <0>        0.00000
     24 C20        -3.9640   -1.2818    0.0000 C.3       1 <0>        0.00000
     25 O2         -4.2207   -0.1436    0.0000 O.2       1 <0>        0.00000
     26 O3         -2.8258   -1.0251    0.0000 O.2       1 <0>        0.00000
     27 C21        -3.4661    0.8434    0.0000 C.3       1 <0>        0.00000
     28 C22         0.8165   -2.8900    0.0000 C.3       1 <0>        0.00000
     29 C23         1.0186    2.1598    0.0000 C.2       1 <0>        0.00000
     30 O4          1.0515    2.9841    0.0000 O.2       1 <0>        0.00000
     31 C24         2.4377    2.5142    0.0000 C.3       1 <0>        0.00000
     32 N3          1.8374    2.7914    0.0000 N.3       1 <0>        0.00000
     33 H1          0.3836   -2.4177    0.0000 H         1 <0>        0.00000
     34 H2         -0.6095    0.0141    0.0000 H         1 <0>        0.00000
     35 H3          4.1262    0.0141    0.0000 H         1 <0>        0.00000
     36 H4          3.7426    0.7445    0.0000 H         1 <0>        0.00000
     37 H5         -0.5001    1.6008    0.0000 H         1 <0>        0.00000
     38 H6         -0.5001    1.6008    0.0000 H         1 <0>        0.00000
     39 H7          2.4877    1.4812    0.0000 H         1 <0>        0.00000
     40 H8          2.4877    1.4812    0.0000 H         1 <0>        0.00000
     41 H9          3.6855   -0.6833    0.0000 H         1 <0>        0.00000
     42 H10         2.4775    0.0800    0.0000 H         1 <0>        0.00000
     43 H11         0.0474   -1.8725    0.0000 H         1 <0>        0.00000
     44 H12         0.0474   -1.8725    0.0000 H         1 <0>        0.00000
     45 H13         1.6644   -1.9372    0.0000 H         1 <0>        0.00000
     46 H14         1.6644   -1.9372    0.0000 H         1 <0>        0.00000
     47 H15         2.3681   -1.5066    0.0000 H         1 <0>        0.00000
     48 H16         2.3681   -1.5066    0.0000 H         1 <0>        0.00000
     49 H17        -0.6197   -1.3871    0.0000 H         1 <0>        0.00000
     50 H18        -0.6197   -1.3871    0.0000 H         1 <0>        0.00000
     51 H19        -1.8174    0.7775    0.0000 H         1 <0>        0.00000
     52 H20        -3.9640   -1.2818    0.0000 H         1 <0>        0.00000
     53 H21        -3.9640   -1.2818    0.0000 H         1 <0>        0.00000
     54 H22        -3.9640   -1.2818    0.0000 H         1 <0>        0.00000
     55 H23        -3.4661    0.8434    0.0000 H         1 <0>        0.00000
     56 H24        -3.4661    0.8434    0.0000 H         1 <0>        0.00000
     57 H25        -3.4661    0.8434    0.0000 H         1 <0>        0.00000
     58 H26         0.8165   -2.8900    0.0000 H         1 <0>        0.00000
     59 H27         0.8165   -2.8900    0.0000 H         1 <0>        0.00000
     60 H28         0.8165   -2.8900    0.0000 H         1 <0>        0.00000
     61 H29         2.4377    2.5142    0.0000 H         1 <0>        0.00000
     62 H30         2.4377    2.5142    0.0000 H         1 <0>        0.00000
     63 H31         2.4377    2.5142    0.0000 H         1 <0>        0.00000
     64 H32         1.8374    2.7914    0.0000 H         1 <0>        0.00000
     65 H33         1.8374    2.7914    0.0000 H         1 <0>        0.00000
@<TRIPOS>BOND
     1    1   20 ar
     2    1    6 1
     3    1    2 ar
     4    2   17 ar
     5    3    4 ar
     6    3   10 ar
     7    4    7 ar
     8    5    6 1
     9    5   29 1
    10    7    8 1
    11    7   12 ar
    12    8    9 1
    13    9   29 1
    14    9   31 1
    15    9   32 1
    16   10   11 ar
    17   11   12 ar
    18   11   16 1
    19   13   18 1
    20   13   14 1
    21   14   15 1
    22   14   28 1
    23   14   33 1
    24   15   16 1
    25   17   19 ar
    26   17   18 1
    27   19   21 ar
    28   20   21 ar
    29   21   22 1
    30   22   27 1
    31   22   23 1
    32   23   24 1
    33   23   25 2
    34   23   26 2
    35   29   30 2
    36    2   34 1
    37    3   35 1
    38    4   36 1
    39    6   37 1
    40    6   38 1
    41    8   39 1
    42    8   40 1
    43   10   41 1
    44   12   42 1
    45   13   43 1
    46   13   44 1
    47   15   45 1
    48   15   46 1
    49   16   47 1
    50   16   48 1
    51   18   49 1
    52   18   50 1
    53   20   51 1
    54   24   52 1
    55   24   53 1
    56   24   54 1
    57   27   55 1
    58   27   56 1
    59   27   57 1
    60   28   58 1
    61   28   59 1
    62   28   60 1
    63   31   61 1
    64   31   62 1
    65   31   63 1
    66   32   64 1
    67   32   65 1
@<TRIPOS>SUBSTRUCTURE
     1 <0>         1 GROUP 0 A     ****
@<TRIPOS>MOLECULE
BHY
   56    57     1     0     0
SMALL
NO_CHARGES

@<TRIPOS>ATOM
      1 N1         -3.6987   -1.9369    0.0000 N.pl3     1 <0>        0.00000
      2 C1         -0.8409   -1.9369    0.0000 C.ar      1 <0>        0.00000
      3 N2          3.4460    2.1881    0.0000 N.pl3     1 <0>        0.00000
      4 C2         -0.1264   -0.6994    0.0000 C.ar      1 <0>        0.00000
      5 O1         -5.1277   -1.1119    0.0000 O.2       1 <0>        0.00000
      6 C3         -1.5553   -0.6994    0.0000 C.ar      1 <0>        0.00000
      7 C4          2.0170    0.5381    0.0000 C.ar      1 <0>        0.00000
      8 C5         -1.5553   -1.5244    0.0000 C.ar      1 <0>        0.00000
      9 O2          3.4460    3.8381    0.0000 O.2       1 <0>        0.00000
     10 S1          3.4460    3.0131    0.0000 S.o2      1 <0>        0.00000
     11 O3          4.2710    3.0131    0.0000 O.2       1 <0>        0.00000
     12 S2         -4.4132   -1.5244    0.0000 S.o2      1 <0>        0.00000
     13 C6         -0.1264   -1.5244    0.0000 C.ar      1 <0>        0.00000
     14 O4         -4.8257   -2.2388    0.0000 O.2       1 <0>        0.00000
     15 C7         -0.8409   -0.2869    0.0000 C.ar      1 <0>        0.00000
     16 C8          2.0170   -0.2869    0.0000 C.ar      1 <0>        0.00000
     17 C9          1.3026   -0.6994    0.0000 C.ar      1 <0>        0.00000
     18 C10         0.5881   -0.2869    0.0000 C.ar      1 <0>        0.00000
     19 C11         0.5881    0.5381    0.0000 C.ar      1 <0>        0.00000
     20 C12         1.3026    0.9506    0.0000 C.ar      1 <0>        0.00000
     21 C13         2.7315    0.9506    0.0000 C.3       1 <0>        0.00000
     22 C14        -2.2698   -1.9369    0.0000 C.3       1 <0>        0.00000
     23 C15        -2.9843   -1.5244    0.0000 C.3       1 <0>        0.00000
     24 C16        -2.2698   -2.7619    0.0000 C.3       1 <0>        0.00000
     25 C17         3.4460    0.5381    0.0000 C.3       1 <0>        0.00000
     26 C18         2.7315    1.7756    0.0000 C.3       1 <0>        0.00000
     27 C19         2.6210    3.0131    0.0000 C.3       1 <0>        0.00000
     28 C20        -4.0007   -0.8099    0.0000 C.3       1 <0>        0.00000
     29 H1          2.7315    0.3667    0.0000 H         1 <0>        0.00000
     30 H2         -2.2698   -1.3529    0.0000 H         1 <0>        0.00000
     31 H3         -3.6987   -1.9369    0.0000 H         1 <0>        0.00000
     32 H4         -0.8409   -1.9369    0.0000 H         1 <0>        0.00000
     33 H5          3.4460    2.1881    0.0000 H         1 <0>        0.00000
     34 H6         -1.5553   -0.6994    0.0000 H         1 <0>        0.00000
     35 H7         -0.1264   -1.5244    0.0000 H         1 <0>        0.00000
     36 H8         -0.8409   -0.2869    0.0000 H         1 <0>        0.00000
     37 H9          2.0170   -0.2869    0.0000 H         1 <0>        0.00000
     38 H10         1.3026   -0.6994    0.0000 H         1 <0>        0.00000
     39 H11         0.5881    0.5381    0.0000 H         1 <0>        0.00000
     40 H12         1.3026    0.9506    0.0000 H         1 <0>        0.00000
     41 H13        -2.9843   -1.5244    0.0000 H         1 <0>        0.00000
     42 H14        -2.9843   -1.5244    0.0000 H         1 <0>        0.00000
     43 H15        -2.2698   -2.7619    0.0000 H         1 <0>        0.00000
     44 H16        -2.2698   -2.7619    0.0000 H         1 <0>        0.00000
     45 H17        -2.2698   -2.7619    0.0000 H         1 <0>        0.00000
     46 H18         3.4460    0.5381    0.0000 H         1 <0>        0.00000
     47 H19         3.4460    0.5381    0.0000 H         1 <0>        0.00000
     48 H20         3.4460    0.5381    0.0000 H         1 <0>        0.00000
     49 H21         2.7315    1.7756    0.0000 H         1 <0>        0.00000
     50 H22         2.7315    1.7756    0.0000 H         1 <0>        0.00000
     51 H23         2.6210    3.0131    0.0000 H         1 <0>        0.00000
     52 H24         2.6210    3.0131    0.0000 H         1 <0>        0.00000
     53 H25         2.6210    3.0131    0.0000 H         1 <0>        0.00000
     54 H26        -4.0007   -0.8099    0.0000 H         1 <0>        0.00000
     55 H27        -4.0007   -0.8099    0.0000 H         1 <0>        0.00000
     56 H28        -4.0007   -0.8099    0.0000 H         1 <0>        0.00000
@<TRIPOS>BOND
     1    1   12 1
     2    1   23 1
     3    2    8 ar
     4    2   13 ar
     5    3   10 1
     6    3   26 1
     7    4   13 ar
     8    4   15 ar
     9    4   18 1
    10    5   12 2
    11    6    8 ar
    12    6   15 ar
    13    7   16 ar
    14    7   20 ar
    15    7   21 1
    16    8   22 1
    17    9   10 2
    18   10   11 2
    19   10   27 1
    20   12   14 2
    21   12   28 1
    22   16   17 ar
    23   17   18 ar
    24   18   19 ar
    25   19   20 ar
    26   21   25 1
    27   21   26 1
    28   21   29 1
    29   22   23 1
    30   22   24 1
    31   22   30 1
    32    1   31 1
    33    2   32 1
    34    3   33 1
    35    6   34 1
    36   13   35 1
    37   15   36 1
    38   16   37 1
    39   17   38 1
    40   19   39 1
    41   20   40 1
    42   23   41 1
    43   23   42 1
    44   24   43 1
    45   24   44 1
    46   24   45 1
    47   25   46 1
    48   25   47 1
    49   25   48 1
    50   26   49 1
    51   26   50 1
    52   27   51 1
    53   27   52 1
    54   27   53 1
    55   28   54 1
    56   28   55 1
    57   28   56 1
@<TRIPOS>SUBSTRUCTURE
     1 <0>         1 GROUP 0 A     ****
@<TRIPOS>MOLECULE
371
   45    48     1     0     0
SMALL
NO_CHARGES

@<TRIPOS>ATOM
      1 O1         -0.1050   -2.3389    0.0000 O.3       1 <0>        0.00000
      2 C1         -0.8195   -2.7514    0.0000 C.ar      1 <0>        0.00000
      3 C2         -0.8195   -3.5764    0.0000 C.ar      1 <0>        0.00000
      4 C3         -0.1050   -3.9889    0.0000 C.ar      1 <0>        0.00000
      5 C4          1.3239   -3.9889    0.0000 C.ar      1 <0>        0.00000
      6 C5          2.0384   -3.5764    0.0000 C.ar      1 <0>        0.00000
      7 C6          2.0384   -2.7514    0.0000 C.ar      1 <0>        0.00000
      8 C7          1.3239   -2.3389    0.0000 C.ar      1 <0>        0.00000
      9 C8          0.6094   -2.7514    0.0000 C.ar      1 <0>        0.00000
     10 C9          0.6094   -3.5764    0.0000 C.ar      1 <0>        0.00000
     11 O2         -0.1050   -4.8139    0.0000 O.2       1 <0>        0.00000
     12 C10        -1.5340   -2.3389    0.0000 C.ar      1 <0>        0.00000
     13 C11        -2.2484   -2.7514    0.0000 C.ar      1 <0>        0.00000
     14 C12        -2.9629   -2.3389    0.0000 C.ar      1 <0>        0.00000
     15 C13        -2.9629   -1.5139    0.0000 C.ar      1 <0>        0.00000
     16 C14        -2.2484   -1.1014    0.0000 C.ar      1 <0>        0.00000
     17 C15        -1.5340   -1.5139    0.0000 C.ar      1 <0>        0.00000
     18 C16         2.7529   -3.9889    0.0000 C.3       1 <0>        0.00000
     19 O3         -1.5340   -3.9889    0.0000 O.3       1 <0>        0.00000
     20 O4         -2.2484   -0.2764    0.0000 O.3       1 <0>        0.00000
     21 O5         -3.6774   -1.1014    0.0000 O.3       1 <0>        0.00000
     22 C17         0.9114   -0.2443    0.0000 C.3       1 <0>        0.00000
     23 C18         0.6565   -1.0289    0.0000 C.3       1 <0>        0.00000
     24 N1          1.3239   -1.5139    0.0000 N.pl3     1 <0>        0.00000
     25 S1          1.9914   -1.0289    0.0000 S.o2      1 <0>        0.00000
     26 C19         1.7364   -0.2443    0.0000 C.3       1 <0>        0.00000
     27 O6          2.5498   -1.6362    0.0000 O.2       1 <0>        0.00000
     28 O7          2.8001   -0.8659    0.0000 O.2       1 <0>        0.00000
     29 H1          1.3239   -3.9889    0.0000 H         1 <0>        0.00000
     30 H2          2.0384   -2.7514    0.0000 H         1 <0>        0.00000
     31 H3         -2.2484   -2.7514    0.0000 H         1 <0>        0.00000
     32 H4         -2.9629   -2.3389    0.0000 H         1 <0>        0.00000
     33 H5         -1.5340   -1.5139    0.0000 H         1 <0>        0.00000
     34 H6          2.7529   -3.9889    0.0000 H         1 <0>        0.00000
     35 H7          2.7529   -3.9889    0.0000 H         1 <0>        0.00000
     36 H8          2.7529   -3.9889    0.0000 H         1 <0>        0.00000
     37 H9         -1.5340   -3.9889    0.0000 H         1 <0>        0.00000
     38 H10        -2.2484   -0.2764    0.0000 H         1 <0>        0.00000
     39 H11        -3.6774   -1.1014    0.0000 H         1 <0>        0.00000
     40 H12         0.9114   -0.2443    0.0000 H         1 <0>        0.00000
     41 H13         0.9114   -0.2443    0.0000 H         1 <0>        0.00000
     42 H14         0.6565   -1.0289    0.0000 H         1 <0>        0.00000
     43 H15         0.6565   -1.0289    0.0000 H         1 <0>        0.00000
     44 H16         1.7364   -0.2443    0.0000 H         1 <0>        0.00000
     45 H17         1.7364   -0.2443    0.0000 H         1 <0>        0.00000
@<TRIPOS>BOND
     1    1    2 1
     2    1    9 1
     3    2   12 1
     4    2    3 2
     5    3   19 1
     6    3    4 1
     7    4   10 1
     8    4   11 2
     9    5   10 ar
    10    5    6 ar
    11    6    7 ar
    12    6   18 1
    13    7    8 ar
    14    8   24 1
    15    8    9 ar
    16    9   10 ar
    17   12   13 ar
    18   12   17 ar
    19   13   14 ar
    20   14   15 ar
    21   15   21 1
    22   15   16 ar
    23   16   20 1
    24   16   17 ar
    25   22   26 1
    26   22   23 1
    27   23   24 1
    28   24   25 1
    29   25   26 1
    30   25   27 2
    31   25   28 2
    32    5   29 1
    33    7   30 1
    34   13   31 1
    35   14   32 1
    36   17   33 1
    37   18   34 1
    38   18   35 1
    39   18   36 1
    40   19   37 1
    41   20   38 1
    42   21   39 1
    43   22   40 1
    44   22   41 1
    45   23   42 1
    46   23   43 1
    47   26   44 1
    48   26   45 1
@<TRIPOS>SUBSTRUCTURE
     1 <0>         1 GROUP 0 A     ****
@<TRIPOS>MOLECULE
PUZ
   47    49     1     0     0
SMALL
NO_CHARGES

@<TRIPOS>ATOM
      1 C1         -4.3829    0.8609    0.0000 C.1       1 <0>        0.00000
      2 C2         -3.6685    0.4484    0.0000 C.1       1 <0>        0.00000
      3 C3         -2.9540    0.0359    0.0000 C.3       1 <0>        0.00000
      4 C4         -2.2395    0.4484    0.0000 C.3       1 <0>        0.00000
      5 C5         -1.5250    0.0359    0.0000 C.3       1 <0>        0.00000
      6 N1         -0.8106    0.4484    0.0000 N.pl3     1 <0>        0.00000
      7 C6         -0.7243    1.2689    0.0000 C.ar      1 <0>        0.00000
      8 N2         -1.2764    1.8820    0.0000 N.ar      1 <0>        0.00000
      9 C7          0.0826    1.4404    0.0000 C.ar      1 <0>        0.00000
     10 C8          0.3376    2.2251    0.0000 C.ar      1 <0>        0.00000
     11 N3          1.1446    2.3966    0.0000 N.pl3     1 <0>        0.00000
     12 N4         -0.2145    2.8381    0.0000 N.ar      1 <0>        0.00000
     13 C9         -1.0214    2.6666    0.0000 C.ar      1 <0>        0.00000
     14 F1         -1.5735    3.2797    0.0000 F         1 <0>        0.00000
     15 N5          0.4951    0.7260    0.0000 N.ar      1 <0>        0.00000
     16 C10        -0.0569    0.1129    0.0000 C.ar      1 <0>        0.00000
     17 C11         0.1146   -0.6941    0.0000 C.3       1 <0>        0.00000
     18 C12         0.8993   -0.9490    0.0000 C.ar      1 <0>        0.00000
     19 C13         1.5124   -0.3970    0.0000 C.ar      1 <0>        0.00000
     20 O1          1.3408    0.4100    0.0000 O.3       1 <0>        0.00000
     21 C14         1.9539    0.9620    0.0000 C.3       1 <0>        0.00000
     22 C15         2.2970   -0.6520    0.0000 C.ar      1 <0>        0.00000
     23 C16         2.4685   -1.4589    0.0000 C.ar      1 <0>        0.00000
     24 C17         1.8554   -2.0110    0.0000 C.ar      1 <0>        0.00000
     25 C18         1.0708   -1.7560    0.0000 C.ar      1 <0>        0.00000
     26 O2          2.0269   -2.8179    0.0000 O.3       1 <0>        0.00000
     27 C19         2.8116   -3.0729    0.0000 C.3       1 <0>        0.00000
     28 H1         -4.3829    0.8609    0.0000 H         1 <0>        0.00000
     29 H2         -2.9540    0.0359    0.0000 H         1 <0>        0.00000
     30 H3         -2.9540    0.0359    0.0000 H         1 <0>        0.00000
     31 H4         -2.2395    0.4484    0.0000 H         1 <0>        0.00000
     32 H5         -2.2395    0.4484    0.0000 H         1 <0>        0.00000
     33 H6         -1.5250    0.0359    0.0000 H         1 <0>        0.00000
     34 H7         -1.5250    0.0359    0.0000 H         1 <0>        0.00000
     35 H8          1.1446    2.3966    0.0000 H         1 <0>        0.00000
     36 H9          1.1446    2.3966    0.0000 H         1 <0>        0.00000
     37 H10         0.1146   -0.6941    0.0000 H         1 <0>        0.00000
     38 H11         0.1146   -0.6941    0.0000 H         1 <0>        0.00000
     39 H12         1.9539    0.9620    0.0000 H         1 <0>        0.00000
     40 H13         1.9539    0.9620    0.0000 H         1 <0>        0.00000
     41 H14         1.9539    0.9620    0.0000 H         1 <0>        0.00000
     42 H15         2.2970   -0.6520    0.0000 H         1 <0>        0.00000
     43 H16         2.4685   -1.4589    0.0000 H         1 <0>        0.00000
     44 H17         1.0708   -1.7560    0.0000 H         1 <0>        0.00000
     45 H18         2.8116   -3.0729    0.0000 H         1 <0>        0.00000
     46 H19         2.8116   -3.0729    0.0000 H         1 <0>        0.00000
     47 H20         2.8116   -3.0729    0.0000 H         1 <0>        0.00000
@<TRIPOS>BOND
     1    1    2 3
     2    2    3 1
     3    3    4 1
     4    4    5 1
     5    5    6 1
     6    6    7 1
     7    6   16 1
     8    7    8 ar
     9    7    9 ar
    10    8   13 ar
    11    9   10 ar
    12    9   15 1
    13   10   11 1
    14   10   12 ar
    15   12   13 ar
    16   13   14 1
    17   15   16 2
    18   16   17 1
    19   17   18 1
    20   18   19 ar
    21   18   25 ar
    22   19   20 1
    23   19   22 ar
    24   20   21 1
    25   22   23 ar
    26   23   24 ar
    27   24   25 ar
    28   24   26 1
    29   26   27 1
    30    1   28 1
    31    3   29 1
    32    3   30 1
    33    4   31 1
    34    4   32 1
    35    5   33 1
    36    5   34 1
    37   11   35 1
    38   11   36 1
    39   17   37 1
    40   17   38 1
    41   21   39 1
    42   21   40 1
    43   21   41 1
    44   22   42 1
    45   23   43 1
    46   25   44 1
    47   27   45 1
    48   27   46 1
    49   27   47 1
@<TRIPOS>SUBSTRUCTURE
     1 <0>         1 GROUP 0 A     ****
@<TRIPOS>MOLECULE
228
   12    11     1     0     0
SMALL
NO_CHARGES

@<TRIPOS>ATOM
      1 Cl1         5.2224   -0.2615    0.0000 Cl        1 <0>        0.00000
      2 F1          3.3810    0.4529    0.0000 F         1 <0>        0.00000
      3 F2          4.2060   -0.9760    0.0000 F         1 <0>        0.00000
      4 F3          4.5080    0.9760    0.0000 F         1 <0>        0.00000
      5 F4          1.6500   -0.6740    0.0000 F         1 <0>        0.00000
      6 F5          2.3645    0.5635    0.0000 F         1 <0>        0.00000
      7 O1          3.0791   -0.6740    0.0000 O.3       1 <0>        0.00000
      8 C1          3.7935   -0.2615    0.0000 C.3       1 <0>        0.00000
      9 C2          4.5080    0.1510    0.0000 C.3       1 <0>        0.00000
     10 C3          2.3645   -0.2615    0.0000 C.3       1 <0>        0.00000
     11 H1          4.5080    0.1510    0.0000 H         1 <0>        0.00000
     12 H2          2.3645   -0.2615    0.0000 H         1 <0>        0.00000
@<TRIPOS>BOND
     1    1    9 1
     2    2    8 1
     3    3    8 1
     4    4    9 1
     5    5   10 1
     6    6   10 1
     7    7    8 1
     8    7   10 1
     9    8    9 1
    10    9   11 1
    11   10   12 1
@<TRIPOS>SUBSTRUCTURE
     1 <0>         1 GROUP 0 A     ****
@<TRIPOS>MOLECULE
*****
   67    72     1     0     0
SMALL
NO_CHARGES

@<TRIPOS>ATOM
      1 O1         -4.7534    3.5889    0.0000 O.3       1 <0>        0.00000
      2 P1         -4.3409    2.8744    0.0000 P.3       1 <0>        0.00000
      3 O2         -5.0554    2.4619    0.0000 O.3       1 <0>        0.00000
      4 O3         -3.6265    3.2869    0.0000 O.2       1 <0>        0.00000
      5 C1         -3.9284    2.1599    0.0000 C.3       1 <0>        0.00000
      6 F1         -4.6429    1.7474    0.0000 F         1 <0>        0.00000
      7 F2         -3.2140    2.5724    0.0000 F         1 <0>        0.00000
      8 C2         -3.5159    1.4455    0.0000 C.ar      1 <0>        0.00000
      9 C3         -2.6909    1.4455    0.0000 C.ar      1 <0>        0.00000
     10 C4         -2.2784    0.7310    0.0000 C.ar      1 <0>        0.00000
     11 C5         -2.6909    0.0165    0.0000 C.ar      1 <0>        0.00000
     12 C6         -2.2784   -0.6979    0.0000 C.3       1 <0>        0.00000
     13 C7         -1.4534   -0.6979    0.0000 C.3       1 <0>        0.00000
     14 C8         -1.4534    0.1271    0.0000 C.3       1 <0>        0.00000
     15 C9         -0.7390    0.5396    0.0000 C.2       1 <0>        0.00000
     16 C10        -0.7390    1.3646    0.0000 C.2       1 <0>        0.00000
     17 C11        -0.0245    1.7771    0.0000 C.ar      1 <0>        0.00000
     18 C12        -0.0245    2.6021    0.0000 C.ar      1 <0>        0.00000
     19 C13         0.6900    3.0146    0.0000 C.ar      1 <0>        0.00000
     20 C14         1.4045    2.6021    0.0000 C.ar      1 <0>        0.00000
     21 C15         1.4045    1.7771    0.0000 C.ar      1 <0>        0.00000
     22 C16         0.6900    1.3646    0.0000 C.ar      1 <0>        0.00000
     23 N1         -1.4534   -1.5229    0.0000 N.pl3     1 <0>        0.00000
     24 N2         -0.7860   -2.0079    0.0000 N.ar      1 <0>        0.00000
     25 N3         -1.0409   -2.7925    0.0000 N.ar      1 <0>        0.00000
     26 C17        -1.8659   -2.7925    0.0000 C.ar      1 <0>        0.00000
     27 C18        -2.1209   -2.0079    0.0000 C.ar      1 <0>        0.00000
     28 C19        -2.9278   -1.8363    0.0000 C.ar      1 <0>        0.00000
     29 C20        -3.4799   -2.4494    0.0000 C.ar      1 <0>        0.00000
     30 C21        -3.2249   -3.2341    0.0000 C.ar      1 <0>        0.00000
     31 C22        -2.4180   -3.4056    0.0000 C.ar      1 <0>        0.00000
     32 C23        -0.6284   -0.6979    0.0000 C.ar      1 <0>        0.00000
     33 N4         -0.1435   -1.3654    0.0000 N.ar      1 <0>        0.00000
     34 C24         0.6411   -1.1104    0.0000 C.ar      1 <0>        0.00000
     35 C25         0.6411   -0.2854    0.0000 C.ar      1 <0>        0.00000
     36 S1         -0.1435   -0.0305    0.0000 S.3       1 <0>        0.00000
     37 C26         1.3556    0.1271    0.0000 C.ar      1 <0>        0.00000
     38 C27         2.0701   -0.2854    0.0000 C.ar      1 <0>        0.00000
     39 C28         2.0701   -1.1104    0.0000 C.ar      1 <0>        0.00000
     40 C29         1.3556   -1.5229    0.0000 C.ar      1 <0>        0.00000
     41 C30        -3.5159    0.0165    0.0000 C.ar      1 <0>        0.00000
     42 C31        -3.9284    0.7310    0.0000 C.ar      1 <0>        0.00000
     43 H1         -4.7534    3.5889    0.0000 H         1 <0>        0.00000
     44 H2         -5.0554    2.4619    0.0000 H         1 <0>        0.00000
     45 H3         -2.6909    1.4455    0.0000 H         1 <0>        0.00000
     46 H4         -2.2784    0.7310    0.0000 H         1 <0>        0.00000
     47 H5         -2.2784   -0.6979    0.0000 H         1 <0>        0.00000
     48 H6         -2.2784   -0.6979    0.0000 H         1 <0>        0.00000
     49 H7         -1.4534    0.1271    0.0000 H         1 <0>        0.00000
     50 H8         -1.4534    0.1271    0.0000 H         1 <0>        0.00000
     51 H9         -0.7390    0.5396    0.0000 H         1 <0>        0.00000
     52 H10        -0.7390    1.3646    0.0000 H         1 <0>        0.00000
     53 H11        -0.0245    2.6021    0.0000 H         1 <0>        0.00000
     54 H12         0.6900    3.0146    0.0000 H         1 <0>        0.00000
     55 H13         1.4045    2.6021    0.0000 H         1 <0>        0.00000
     56 H14         1.4045    1.7771    0.0000 H         1 <0>        0.00000
     57 H15         0.6900    1.3646    0.0000 H         1 <0>        0.00000
     58 H16        -2.9278   -1.8363    0.0000 H         1 <0>        0.00000
     59 H17        -3.4799   -2.4494    0.0000 H         1 <0>        0.00000
     60 H18        -3.2249   -3.2341    0.0000 H         1 <0>        0.00000
     61 H19        -2.4180   -3.4056    0.0000 H         1 <0>        0.00000
     62 H20         1.3556    0.1271    0.0000 H         1 <0>        0.00000
     63 H21         2.0701   -0.2854    0.0000 H         1 <0>        0.00000
     64 H22         2.0701   -1.1104    0.0000 H         1 <0>        0.00000
     65 H23         1.3556   -1.5229    0.0000 H         1 <0>        0.00000
     66 H24        -3.5159    0.0165    0.0000 H         1 <0>        0.00000
     67 H25        -3.9284    0.7310    0.0000 H         1 <0>        0.00000
@<TRIPOS>BOND
     1    1    2 1
     2    2    3 1
     3    2    4 2
     4    2    5 1
     5    5    6 1
     6    5    7 1
     7    5    8 1
     8    8    9 ar
     9    9   10 ar
    10   10   11 ar
    11   11   12 1
    12   12   13 1
    13   13   14 1
    14   14   15 1
    15   15   16 2
    16   16   17 1
    17   17   18 ar
    18   18   19 ar
    19   19   20 ar
    20   20   21 ar
    21   21   22 ar
    22   17   22 ar
    23   13   23 1
    24   23   24 1
    25   24   25 2
    26   25   26 1
    27   26   27 ar
    28   23   27 1
    29   27   28 ar
    30   28   29 ar
    31   29   30 ar
    32   30   31 ar
    33   26   31 ar
    34   13   32 1
    35   32   33 2
    36   33   34 1
    37   34   35 ar
    38   35   36 1
    39   32   36 1
    40   35   37 ar
    41   37   38 ar
    42   38   39 ar
    43   39   40 ar
    44   34   40 ar
    45   11   41 ar
    46   41   42 ar
    47    8   42 ar
    48    1   43 1
    49    3   44 1
    50    9   45 1
    51   10   46 1
    52   12   47 1
    53   12   48 1
    54   14   49 1
    55   14   50 1
    56   15   51 1
    57   16   52 1
    58   18   53 1
    59   19   54 1
    60   20   55 1
    61   21   56 1
    62   22   57 1
    63   28   58 1
    64   29   59 1
    65   30   60 1
    66   31   61 1
    67   37   62 1
    68   38   63 1
    69   39   64 1
    70   40   65 1
    71   41   66 1
    72   42   67 1
@<TRIPOS>SUBSTRUCTURE
     1 <0>         1 GROUP 0 A     ****
@<TRIPOS>MOLECULE
*****
   55    57     1     0     0
SMALL
NO_CHARGES

@<TRIPOS>ATOM
      1 C1          4.2868   -2.4750    0.0000 C.3       1 <0>        0.00000
      2 N1          4.2868   -1.6500    0.0000 N.3       1 <0>        0.00000
      3 C2          3.5724   -1.2375    0.0000 C.3       1 <0>        0.00000
      4 C3          2.8579   -1.6500    0.0000 C.3       1 <0>        0.00000
      5 C4          2.1434   -1.2375    0.0000 C.3       1 <0>        0.00000
      6 C5          1.4289   -1.6500    0.0000 C.3       1 <0>        0.00000
      7 C6          0.7145   -1.2375    0.0000 C.3       1 <0>        0.00000
      8 C7          0.0000   -1.6500    0.0000 C.3       1 <0>        0.00000
      9 O1         -0.7145   -1.2375    0.0000 O.3       1 <0>        0.00000
     10 C8         -1.4289   -1.6500    0.0000 C.ar      1 <0>        0.00000
     11 C9         -1.4289   -2.4750    0.0000 C.ar      1 <0>        0.00000
     12 C10        -2.1434   -2.8875    0.0000 C.ar      1 <0>        0.00000
     13 C11        -2.8579   -2.4750    0.0000 C.ar      1 <0>        0.00000
     14 C12        -2.8579   -1.6500    0.0000 C.ar      1 <0>        0.00000
     15 S1         -3.6425   -1.3951    0.0000 S.3       1 <0>        0.00000
     16 N2         -4.1274   -2.0625    0.0000 N.ar      1 <0>        0.00000
     17 C13        -3.6425   -2.7299    0.0000 C.ar      1 <0>        0.00000
     18 C14        -3.8974   -3.5146    0.0000 C.ar      1 <0>        0.00000
     19 C15        -3.3454   -4.1277    0.0000 C.ar      1 <0>        0.00000
     20 C16        -3.6004   -4.9123    0.0000 C.ar      1 <0>        0.00000
     21 C17        -4.4073   -5.0838    0.0000 C.ar      1 <0>        0.00000
     22 Br1        -4.6623   -5.8684    0.0000 Br        1 <0>        0.00000
     23 C18        -4.9594   -4.4707    0.0000 C.ar      1 <0>        0.00000
     24 C19        -4.7044   -3.6861    0.0000 C.ar      1 <0>        0.00000
     25 C20        -2.1434   -1.2375    0.0000 C.ar      1 <0>        0.00000
     26 C21         5.0013   -1.2375    0.0000 C.3       1 <0>        0.00000
     27 C22         5.7158   -1.6500    0.0000 C.2       1 <0>        0.00000
     28 C23         6.4302   -1.2375    0.0000 C.2       1 <0>        0.00000
     29 H1          4.2868   -2.4750    0.0000 H         1 <0>        0.00000
     30 H2          4.2868   -2.4750    0.0000 H         1 <0>        0.00000
     31 H3          4.2868   -2.4750    0.0000 H         1 <0>        0.00000
     32 H4          3.5724   -1.2375    0.0000 H         1 <0>        0.00000
     33 H5          3.5724   -1.2375    0.0000 H         1 <0>        0.00000
     34 H6          2.8579   -1.6500    0.0000 H         1 <0>        0.00000
     35 H7          2.8579   -1.6500    0.0000 H         1 <0>        0.00000
     36 H8          2.1434   -1.2375    0.0000 H         1 <0>        0.00000
     37 H9          2.1434   -1.2375    0.0000 H         1 <0>        0.00000
     38 H10         1.4289   -1.6500    0.0000 H         1 <0>        0.00000
     39 H11         1.4289   -1.6500    0.0000 H         1 <0>        0.00000
     40 H12         0.7145   -1.2375    0.0000 H         1 <0>        0.00000
     41 H13         0.7145   -1.2375    0.0000 H         1 <0>        0.00000
     42 H14         0.0000   -1.6500    0.0000 H         1 <0>        0.00000
     43 H15         0.0000   -1.6500    0.0000 H         1 <0>        0.00000
     44 H16        -1.4289   -2.4750    0.0000 H         1 <0>        0.00000
     45 H17        -2.1434   -2.8875    0.0000 H         1 <0>        0.00000
     46 H18        -3.3454   -4.1277    0.0000 H         1 <0>        0.00000
     47 H19        -3.6004   -4.9123    0.0000 H         1 <0>        0.00000
     48 H20        -4.9594   -4.4707    0.0000 H         1 <0>        0.00000
     49 H21        -4.7044   -3.6861    0.0000 H         1 <0>        0.00000
     50 H22        -2.1434   -1.2375    0.0000 H         1 <0>        0.00000
     51 H23         5.0013   -1.2375    0.0000 H         1 <0>        0.00000
     52 H24         5.0013   -1.2375    0.0000 H         1 <0>        0.00000
     53 H25         5.7158   -1.6500    0.0000 H         1 <0>        0.00000
     54 H26         6.4302   -1.2375    0.0000 H         1 <0>        0.00000
     55 H27         6.4302   -1.2375    0.0000 H         1 <0>        0.00000
@<TRIPOS>BOND
     1    1    2 1
     2    2    3 1
     3    3    4 1
     4    4    5 1
     5    5    6 1
     6    6    7 1
     7    7    8 1
     8    8    9 1
     9    9   10 1
    10   10   11 ar
    11   11   12 ar
    12   12   13 ar
    13   13   14 ar
    14   14   15 1
    15   15   16 1
    16   16   17 2
    17   13   17 1
    18   17   18 1
    19   18   19 ar
    20   19   20 ar
    21   20   21 ar
    22   21   22 1
    23   21   23 ar
    24   23   24 ar
    25   18   24 ar
    26   14   25 ar
    27   10   25 ar
    28    2   26 1
    29   26   27 1
    30   27   28 2
    31    1   29 1
    32    1   30 1
    33    1   31 1
    34    3   32 1
    35    3   33 1
    36    4   34 1
    37    4   35 1
    38    5   36 1
    39    5   37 1
    40    6   38 1
    41    6   39 1
    42    7   40 1
    43    7   41 1
    44    8   42 1
    45    8   43 1
    46   11   44 1
    47   12   45 1
    48   19   46 1
    49   20   47 1
    50   23   48 1
    51   24   49 1
    52   25   50 1
    53   26   51 1
    54   26   52 1
    55   27   53 1
    56   28   54 1
    57   28   55 1
@<TRIPOS>SUBSTRUCTURE
     1 <0>         1 GROUP 0 A     ****
@<TRIPOS>MOLECULE
*****
    7     6     1     0     0
SMALL
NO_CHARGES

@<TRIPOS>ATOM
      1 F1         -0.4125   -0.7145    0.0000 F         1 <0>        0.00000
      2 F2          0.4125    0.7145    0.0000 F         1 <0>        0.00000
      3 F3         -0.4125    0.7145    0.0000 F         1 <0>        0.00000
      4 F4         -0.8250   -0.0000    0.0000 F         1 <0>        0.00000
      5 F5          0.4125   -0.7145    0.0000 F         1 <0>        0.00000
      6 F6          0.8250    0.0000    0.0000 F         1 <0>        0.00000
      7 S1          0.0000    0.0000    0.0000 S.3       1 <0>        0.00000
@<TRIPOS>BOND
     1    1    7 1
     2    2    7 1
     3    3    7 1
     4    4    7 1
     5    5    7 1
     6    6    7 1
@<TRIPOS>SUBSTRUCTURE
     1 <0>         1 GROUP 0 A     ****
@<TRIPOS>MOLECULE
*****
   20    20     1     0     0
SMALL
NO_CHARGES

@<TRIPOS>ATOM
      1 C1         -0.1467    3.1768    0.0000 C.3       1 <0>        0.00000
      2 C2         -0.1467    2.3518    0.0000 C.3       1 <0>        0.00000
      3 O1         -0.8612    1.9393    0.0000 O.3       1 <0>        0.00000
      4 C3          0.5678    1.9393    0.0000 C.3       1 <0>        0.00000
      5 N1          1.2822    2.3518    0.0000 N.3       1 <0>        0.00000
      6 C4          0.5678    1.1143    0.0000 C.ar      1 <0>        0.00000
      7 N2          1.2352    0.6294    0.0000 N.ar      1 <0>        0.00000
      8 C5          0.9803   -0.1553    0.0000 C.ar      1 <0>        0.00000
      9 C6          0.1553   -0.1553    0.0000 C.ar      1 <0>        0.00000
     10 S1         -0.0997    0.6294    0.0000 S.3       1 <0>        0.00000
     11 H1         -0.1467    3.1768    0.0000 H         1 <0>        0.00000
     12 H2         -0.1467    3.1768    0.0000 H         1 <0>        0.00000
     13 H3         -0.1467    3.1768    0.0000 H         1 <0>        0.00000
     14 H4         -0.1467    2.3518    0.0000 H         1 <0>        0.00000
     15 H5         -0.8612    1.9393    0.0000 H         1 <0>        0.00000
     16 H6          0.5678    1.9393    0.0000 H         1 <0>        0.00000
     17 H7          1.2822    2.3518    0.0000 H         1 <0>        0.00000
     18 H8          1.2822    2.3518    0.0000 H         1 <0>        0.00000
     19 H9          0.9803   -0.1553    0.0000 H         1 <0>        0.00000
     20 H10         0.1553   -0.1553    0.0000 H         1 <0>        0.00000
@<TRIPOS>BOND
     1    1    2 1
     2    2    3 1
     3    2    4 1
     4    4    5 1
     5    4    6 1
     6    6    7 2
     7    7    8 1
     8    8    9 2
     9    9   10 1
    10    6   10 1
    11    1   11 1
    12    1   12 1
    13    1   13 1
    14    2   14 1
    15    3   15 1
    16    4   16 1
    17    5   17 1
    18    5   18 1
    19    8   19 1
    20    9   20 1
@<TRIPOS>SUBSTRUCTURE
     1 <0>         1 GROUP 0 A     ****
@<TRIPOS>MOLECULE
775
   66    67     1     0     0
SMALL
NO_CHARGES

@<TRIPOS>ATOM
      1 S1          7.0944    3.3001    0.0000 S.o2      1 <0>        0.00000
      2 O1          5.6655   -1.6500    0.0000 O.3       1 <0>        0.00000
      3 O2          7.5069    2.5856    0.0000 O.2       1 <0>        0.00000
      4 O3          6.6819    4.0145    0.0000 O.2       1 <0>        0.00000
      5 O4          7.8089    2.0625    0.0000 O.3       1 <0>        0.00000
      6 O5          7.0944    0.8250    0.0000 O.2       1 <0>        0.00000
      7 N1          2.0930   -5.3626    0.0000 N.3       1 <0>        0.00000
      8 N2          6.3799    2.8876    0.0000 N.pl3     1 <0>        0.00000
      9 C1          3.5220   -4.5376    0.0000 C.3       1 <0>        0.00000
     10 C2          3.5220   -5.3626    0.0000 C.3       1 <0>        0.00000
     11 C3          2.8075   -4.1251    0.0000 C.3       1 <0>        0.00000
     12 C4          4.2365   -4.1251    0.0000 C.3       1 <0>        0.00000
     13 C5          2.8075   -5.7751    0.0000 C.3       1 <0>        0.00000
     14 C6          2.0930   -4.5376    0.0000 C.3       1 <0>        0.00000
     15 C7          4.2365   -3.3001    0.0000 C.3       1 <0>        0.00000
     16 C8          4.9509   -2.8876    0.0000 C.3       1 <0>        0.00000
     17 C9          4.9509   -2.0625    0.0000 C.3       1 <0>        0.00000
     18 C10         6.3799    2.0625    0.0000 C.3       1 <0>        0.00000
     19 C11         5.6655    1.6500    0.0000 C.3       1 <0>        0.00000
     20 C12         7.8089    3.7126    0.0000 C.3       1 <0>        0.00000
     21 C13         5.6655   -0.8250    0.0000 C.ar      1 <0>        0.00000
     22 C14         7.8089    4.5376    0.0000 C.3       1 <0>        0.00000
     23 C15         5.6655    0.8250    0.0000 C.ar      1 <0>        0.00000
     24 C16         8.5234    4.9501    0.0000 C.3       1 <0>        0.00000
     25 C17         6.3799   -0.4125    0.0000 C.ar      1 <0>        0.00000
     26 C18         4.9509   -0.4125    0.0000 C.ar      1 <0>        0.00000
     27 C19         6.3799    0.4125    0.0000 C.ar      1 <0>        0.00000
     28 C20         4.9509    0.4125    0.0000 C.ar      1 <0>        0.00000
     29 C21         7.0944    1.6500    0.0000 C.2       1 <0>        0.00000
     30 C22         8.5234    5.7751    0.0000 C.3       1 <0>        0.00000
     31 H1          7.8089    2.0625    0.0000 H         1 <0>        0.00000
     32 H2          2.0930   -5.3626    0.0000 H         1 <0>        0.00000
     33 H3          6.3799    2.8876    0.0000 H         1 <0>        0.00000
     34 H4          3.5220   -4.5376    0.0000 H         1 <0>        0.00000
     35 H5          3.5220   -5.3626    0.0000 H         1 <0>        0.00000
     36 H6          3.5220   -5.3626    0.0000 H         1 <0>        0.00000
     37 H7          2.8075   -4.1251    0.0000 H         1 <0>        0.00000
     38 H8          2.8075   -4.1251    0.0000 H         1 <0>        0.00000
     39 H9          4.2365   -4.1251    0.0000 H         1 <0>        0.00000
     40 H10         4.2365   -4.1251    0.0000 H         1 <0>        0.00000
     41 H11         2.8075   -5.7751    0.0000 H         1 <0>        0.00000
     42 H12         2.8075   -5.7751    0.0000 H         1 <0>        0.00000
     43 H13         2.0930   -4.5376    0.0000 H         1 <0>        0.00000
     44 H14         2.0930   -4.5376    0.0000 H         1 <0>        0.00000
     45 H15         4.2365   -3.3001    0.0000 H         1 <0>        0.00000
     46 H16         4.2365   -3.3001    0.0000 H         1 <0>        0.00000
     47 H17         4.9509   -2.8876    0.0000 H         1 <0>        0.00000
     48 H18         4.9509   -2.8876    0.0000 H         1 <0>        0.00000
     49 H19         4.9509   -2.0625    0.0000 H         1 <0>        0.00000
     50 H20         4.9509   -2.0625    0.0000 H         1 <0>        0.00000
     51 H21         6.3799    2.0625    0.0000 H         1 <0>        0.00000
     52 H22         5.6655    1.6500    0.0000 H         1 <0>        0.00000
     53 H23         5.6655    1.6500    0.0000 H         1 <0>        0.00000
     54 H24         7.8089    3.7126    0.0000 H         1 <0>        0.00000
     55 H25         7.8089    3.7126    0.0000 H         1 <0>        0.00000
     56 H26         7.8089    4.5376    0.0000 H         1 <0>        0.00000
     57 H27         7.8089    4.5376    0.0000 H         1 <0>        0.00000
     58 H28         8.5234    4.9501    0.0000 H         1 <0>        0.00000
     59 H29         8.5234    4.9501    0.0000 H         1 <0>        0.00000
     60 H30         6.3799   -0.4125    0.0000 H         1 <0>        0.00000
     61 H31         4.9509   -0.4125    0.0000 H         1 <0>        0.00000
     62 H32         6.3799    0.4125    0.0000 H         1 <0>        0.00000
     63 H33         4.9509    0.4125    0.0000 H         1 <0>        0.00000
     64 H34         8.5234    5.7751    0.0000 H         1 <0>        0.00000
     65 H35         8.5234    5.7751    0.0000 H         1 <0>        0.00000
     66 H36         8.5234    5.7751    0.0000 H         1 <0>        0.00000
@<TRIPOS>BOND
     1    1    3 2
     2    1    4 2
     3    1    8 1
     4    1   20 1
     5    2   17 1
     6    2   21 1
     7    5   29 1
     8    6   29 2
     9    7   13 1
    10    7   14 1
    11    8   18 1
    12    9   10 1
    13    9   11 1
    14    9   12 1
    15   10   13 1
    16   11   14 1
    17   12   15 1
    18   15   16 1
    19   16   17 1
    20   18   19 1
    21   18   29 1
    22   19   23 1
    23   20   22 1
    24   21   25 ar
    25   21   26 ar
    26   22   24 1
    27   23   27 ar
    28   23   28 ar
    29   24   30 1
    30   25   27 ar
    31   26   28 ar
    32    5   31 1
    33    7   32 1
    34    8   33 1
    35    9   34 1
    36   10   35 1
    37   10   36 1
    38   11   37 1
    39   11   38 1
    40   12   39 1
    41   12   40 1
    42   13   41 1
    43   13   42 1
    44   14   43 1
    45   14   44 1
    46   15   45 1
    47   15   46 1
    48   16   47 1
    49   16   48 1
    50   17   49 1
    51   17   50 1
    52   18   51 1
    53   19   52 1
    54   19   53 1
    55   20   54 1
    56   20   55 1
    57   22   56 1
    58   22   57 1
    59   24   58 1
    60   24   59 1
    61   25   60 1
    62   26   61 1
    63   27   62 1
    64   28   63 1
    65   30   64 1
    66   30   65 1
    67   30   66 1
@<TRIPOS>SUBSTRUCTURE
     1 <0>         1 GROUP 0 A     ****
@<TRIPOS>MOLECULE
236
   32    32     1     0     0
SMALL
NO_CHARGES

@<TRIPOS>ATOM
      1 Br1         1.6500   -3.3000    0.0000 Br        1 <0>        0.00000
      2 Br2         4.5079    3.3000    0.0000 Br        1 <0>        0.00000
      3 O1          3.7935   -2.0625    0.0000 O.2       1 <0>        0.00000
      4 O2          2.3645    2.0625    0.0000 O.2       1 <0>        0.00000
      5 N1          3.0790   -0.8250    0.0000 N.am      1 <0>        0.00000
      6 N2          3.0790    0.8250    0.0000 N.am      1 <0>        0.00000
      7 C1          3.7935   -0.4125    0.0000 C.3       1 <0>        0.00000
      8 C2          2.3645   -0.4125    0.0000 C.3       1 <0>        0.00000
      9 C3          3.7935    0.4125    0.0000 C.3       1 <0>        0.00000
     10 C4          2.3645    0.4125    0.0000 C.3       1 <0>        0.00000
     11 C5          3.0790   -1.6500    0.0000 C.2       1 <0>        0.00000
     12 C6          3.0790    1.6500    0.0000 C.2       1 <0>        0.00000
     13 C7          2.3645   -2.0625    0.0000 C.3       1 <0>        0.00000
     14 C8          3.7935    2.0625    0.0000 C.3       1 <0>        0.00000
     15 C9          2.3645   -2.8875    0.0000 C.3       1 <0>        0.00000
     16 C10         3.7935    2.8875    0.0000 C.3       1 <0>        0.00000
     17 H1          3.7935   -0.4125    0.0000 H         1 <0>        0.00000
     18 H2          3.7935   -0.4125    0.0000 H         1 <0>        0.00000
     19 H3          2.3645   -0.4125    0.0000 H         1 <0>        0.00000
     20 H4          2.3645   -0.4125    0.0000 H         1 <0>        0.00000
     21 H5          3.7935    0.4125    0.0000 H         1 <0>        0.00000
     22 H6          3.7935    0.4125    0.0000 H         1 <0>        0.00000
     23 H7          2.3645    0.4125    0.0000 H         1 <0>        0.00000
     24 H8          2.3645    0.4125    0.0000 H         1 <0>        0.00000
     25 H9          2.3645   -2.0625    0.0000 H         1 <0>        0.00000
     26 H10         2.3645   -2.0625    0.0000 H         1 <0>        0.00000
     27 H11         3.7935    2.0625    0.0000 H         1 <0>        0.00000
     28 H12         3.7935    2.0625    0.0000 H         1 <0>        0.00000
     29 H13         2.3645   -2.8875    0.0000 H         1 <0>        0.00000
     30 H14         2.3645   -2.8875    0.0000 H         1 <0>        0.00000
     31 H15         3.7935    2.8875    0.0000 H         1 <0>        0.00000
     32 H16         3.7935    2.8875    0.0000 H         1 <0>        0.00000
@<TRIPOS>BOND
     1    1   15 1
     2    2   16 1
     3    3   11 2
     4    4   12 2
     5    5    7 1
     6    5    8 1
     7    5   11 am
     8    6    9 1
     9    6   10 1
    10    6   12 am
    11    7    9 1
    12    8   10 1
    13   11   13 1
    14   12   14 1
    15   13   15 1
    16   14   16 1
    17    7   17 1
    18    7   18 1
    19    8   19 1
    20    8   20 1
    21    9   21 1
    22    9   22 1
    23   10   23 1
    24   10   24 1
    25   13   25 1
    26   13   26 1
    27   14   27 1
    28   14   28 1
    29   15   29 1
    30   15   30 1
    31   16   31 1
    32   16   32 1
@<TRIPOS>SUBSTRUCTURE
     1 <0>         1 GROUP 0 A     ****
@<TRIPOS>MOLECULE
*****
    8     7     1     0     0
SMALL
NO_CHARGES

@<TRIPOS>ATOM
      1 Cl1         2.0625   -0.7145    0.0000 Cl        1 <0>        0.00000
      2 C1          1.2375   -0.7145    0.0000 C.3       1 <0>        0.00000
      3 C2          0.8250    0.0000    0.0000 C.3       1 <0>        0.00000
      4 Cl2         0.0000    0.0000    0.0000 Cl        1 <0>        0.00000
      5 H1          1.2375   -0.7145    0.0000 H         1 <0>        0.00000
      6 H2          1.2375   -0.7145    0.0000 H         1 <0>        0.00000
      7 H3          0.8250    0.0000    0.0000 H         1 <0>        0.00000
      8 H4          0.8250    0.0000    0.0000 H         1 <0>        0.00000
@<TRIPOS>BOND
     1    1    2 1
     2    2    3 1
     3    3    4 1
     4    2    5 1
     5    2    6 1
     6    3    7 1
     7    3    8 1
@<TRIPOS>SUBSTRUCTURE
     1 <0>         1 GROUP 0 A     ****
@<TRIPOS>MOLECULE
1361
  124   127     1     0     0
SMALL
NO_CHARGES

@<TRIPOS>ATOM
      1 O1          5.5245   -2.9833    0.0000 O.3       1 <0>        0.00000
      2 O2          8.0804   -1.0313    0.0000 O.3       1 <0>        0.00000
      3 O3          6.6515    1.4438    0.0000 O.3       1 <0>        0.00000
      4 O4          7.3659   -2.2688    0.0000 O.3       1 <0>        0.00000
      5 O5          5.2224   -1.0313    0.0000 O.2       1 <0>        0.00000
      6 O6          3.0791   -2.2688    0.0000 O.3       1 <0>        0.00000
      7 O7          4.5080    0.2063    0.0000 O.3       1 <0>        0.00000
      8 O8          9.5094   -1.8563    0.0000 O.3       1 <0>        0.00000
      9 O9          7.3659    2.6813    0.0000 O.3       1 <0>        0.00000
     10 O10         5.2224    1.4438    0.0000 O.2       1 <0>        0.00000
     11 O11         9.5094    1.4438    0.0000 O.3       1 <0>        0.00000
     12 O12         9.5094    3.0938    0.0000 O.3       1 <0>        0.00000
     13 O13         2.3645   -1.0313    0.0000 O.2       1 <0>        0.00000
     14 O14         8.7949   -0.6188    0.0000 O.2       1 <0>        0.00000
     15 O15         8.7949    4.3313    0.0000 O.2       1 <0>        0.00000
     16 N1          9.5094   -3.5063    0.0000 N.3       1 <0>        0.00000
     17 C1          5.9370   -2.2688    0.0000 C.3       1 <0>        0.00000
     18 C2          6.6515   -1.8563    0.0000 C.3       1 <0>        0.00000
     19 C3          6.6515   -1.0313    0.0000 C.3       1 <0>        0.00000
     20 C4          7.3659   -0.6188    0.0000 C.3       1 <0>        0.00000
     21 C5          6.3495   -2.9833    0.0000 C.3       1 <0>        0.00000
     22 C6          7.3659    0.2063    0.0000 C.3       1 <0>        0.00000
     23 C7          5.2224   -1.8563    0.0000 C.2       1 <0>        0.00000
     24 C8          6.6515    0.6188    0.0000 C.3       1 <0>        0.00000
     25 C9          4.5080   -2.2688    0.0000 C.3       1 <0>        0.00000
     26 C10         5.9370   -0.6188    0.0000 C.3       1 <0>        0.00000
     27 C11         3.7935   -1.8563    0.0000 C.3       1 <0>        0.00000
     28 C12         5.9370    0.2063    0.0000 C.3       1 <0>        0.00000
     29 C13         8.0804   -1.8563    0.0000 C.3       1 <0>        0.00000
     30 C14         8.0804    0.6188    0.0000 C.3       1 <0>        0.00000
     31 C15         3.7935   -1.0313    0.0000 C.3       1 <0>        0.00000
     32 C16         8.7949   -2.2688    0.0000 C.3       1 <0>        0.00000
     33 C17         8.7949   -3.0938    0.0000 C.3       1 <0>        0.00000
     34 C18         4.5080   -3.0938    0.0000 C.3       1 <0>        0.00000
     35 C19         4.5080   -0.6188    0.0000 C.3       1 <0>        0.00000
     36 C20         8.0804   -3.5063    0.0000 C.3       1 <0>        0.00000
     37 C21         7.3659   -3.0938    0.0000 C.3       1 <0>        0.00000
     38 C22         7.3659    1.8563    0.0000 C.3       1 <0>        0.00000
     39 C23         5.2224    0.6188    0.0000 C.2       1 <0>        0.00000
     40 C24         5.2225   -0.2063    0.0000 C.3       1 <0>        0.00000
     41 C25         3.0791   -0.6188    0.0000 C.3       1 <0>        0.00000
     42 C26         8.0804    1.4438    0.0000 C.3       1 <0>        0.00000
     43 C27         8.7949    1.8563    0.0000 C.3       1 <0>        0.00000
     44 C28         8.7949    2.6813    0.0000 C.3       1 <0>        0.00000
     45 C29         8.0804    3.0938    0.0000 C.3       1 <0>        0.00000
     46 C30         4.5080   -1.4438    0.0000 C.3       1 <0>        0.00000
     47 C31         6.6515   -3.5063    0.0000 C.3       1 <0>        0.00000
     48 C32        10.2239   -3.0938    0.0000 C.3       1 <0>        0.00000
     49 C33         9.5094   -4.3313    0.0000 C.3       1 <0>        0.00000
     50 C34         2.3645   -1.8563    0.0000 C.2       1 <0>        0.00000
     51 C35         8.0804    3.9188    0.0000 C.3       1 <0>        0.00000
     52 C36         9.5094   -1.0313    0.0000 C.2       1 <0>        0.00000
     53 C37         1.6500   -2.2688    0.0000 C.3       1 <0>        0.00000
     54 C38        10.2239    1.8563    0.0000 C.3       1 <0>        0.00000
     55 C39        10.2239   -0.6188    0.0000 C.3       1 <0>        0.00000
     56 C40         9.5094    3.9188    0.0000 C.2       1 <0>        0.00000
     57 C41        10.2239    4.3313    0.0000 C.3       1 <0>        0.00000
     58 H1          6.6515   -1.8563    0.0000 H         1 <0>        0.00000
     59 H2          6.6515   -1.8563    0.0000 H         1 <0>        0.00000
     60 H3          6.6515   -1.0313    0.0000 H         1 <0>        0.00000
     61 H4          7.3659   -0.6188    0.0000 H         1 <0>        0.00000
     62 H5          6.3495   -2.9833    0.0000 H         1 <0>        0.00000
     63 H6          6.3495   -2.9833    0.0000 H         1 <0>        0.00000
     64 H7          7.3659    0.2063    0.0000 H         1 <0>        0.00000
     65 H8          6.6515    0.6188    0.0000 H         1 <0>        0.00000
     66 H9          4.5080   -2.2688    0.0000 H         1 <0>        0.00000
     67 H10         5.9370   -0.6188    0.0000 H         1 <0>        0.00000
     68 H11         5.9370   -0.6188    0.0000 H         1 <0>        0.00000
     69 H12         5.9370   -0.6188    0.0000 H         1 <0>        0.00000
     70 H13         3.7935   -1.8563    0.0000 H         1 <0>        0.00000
     71 H14         5.9370    0.2063    0.0000 H         1 <0>        0.00000
     72 H15         8.0804   -1.8563    0.0000 H         1 <0>        0.00000
     73 H16         8.0804    0.6188    0.0000 H         1 <0>        0.00000
     74 H17         8.0804    0.6188    0.0000 H         1 <0>        0.00000
     75 H18         8.0804    0.6188    0.0000 H         1 <0>        0.00000
     76 H19         3.7935   -1.0313    0.0000 H         1 <0>        0.00000
     77 H20         8.7949   -2.2688    0.0000 H         1 <0>        0.00000
     78 H21         8.7949   -3.0938    0.0000 H         1 <0>        0.00000
     79 H22         4.5080   -3.0938    0.0000 H         1 <0>        0.00000
     80 H23         4.5080   -3.0938    0.0000 H         1 <0>        0.00000
     81 H24         4.5080   -3.0938    0.0000 H         1 <0>        0.00000
     82 H25         4.5080   -0.6188    0.0000 H         1 <0>        0.00000
     83 H26         8.0804   -3.5063    0.0000 H         1 <0>        0.00000
     84 H27         8.0804   -3.5063    0.0000 H         1 <0>        0.00000
     85 H28         7.3659   -3.0938    0.0000 H         1 <0>        0.00000
     86 H29         7.3659    1.8563    0.0000 H         1 <0>        0.00000
     87 H30         5.2225   -0.2063    0.0000 H         1 <0>        0.00000
     88 H31         5.2225   -0.2063    0.0000 H         1 <0>        0.00000
     89 H32         5.2225   -0.2063    0.0000 H         1 <0>        0.00000
     90 H33         3.0791   -0.6188    0.0000 H         1 <0>        0.00000
     91 H34         3.0791   -0.6188    0.0000 H         1 <0>        0.00000
     92 H35         3.0791   -0.6188    0.0000 H         1 <0>        0.00000
     93 H36         8.0804    1.4438    0.0000 H         1 <0>        0.00000
     94 H37         8.0804    1.4438    0.0000 H         1 <0>        0.00000
     95 H38         8.7949    1.8563    0.0000 H         1 <0>        0.00000
     96 H39         8.7949    2.6813    0.0000 H         1 <0>        0.00000
     97 H40         8.0804    3.0938    0.0000 H         1 <0>        0.00000
     98 H41         4.5080   -1.4438    0.0000 H         1 <0>        0.00000
     99 H42         4.5080   -1.4438    0.0000 H         1 <0>        0.00000
    100 H43         4.5080   -1.4438    0.0000 H         1 <0>        0.00000
    101 H44         6.6515   -3.5063    0.0000 H         1 <0>        0.00000
    102 H45         6.6515   -3.5063    0.0000 H         1 <0>        0.00000
    103 H46         6.6515   -3.5063    0.0000 H         1 <0>        0.00000
    104 H47        10.2239   -3.0938    0.0000 H         1 <0>        0.00000
    105 H48        10.2239   -3.0938    0.0000 H         1 <0>        0.00000
    106 H49        10.2239   -3.0938    0.0000 H         1 <0>        0.00000
    107 H50         9.5094   -4.3313    0.0000 H         1 <0>        0.00000
    108 H51         9.5094   -4.3313    0.0000 H         1 <0>        0.00000
    109 H52         9.5094   -4.3313    0.0000 H         1 <0>        0.00000
    110 H53         8.0804    3.9188    0.0000 H         1 <0>        0.00000
    111 H54         8.0804    3.9188    0.0000 H         1 <0>        0.00000
    112 H55         8.0804    3.9188    0.0000 H         1 <0>        0.00000
    113 H56         1.6500   -2.2688    0.0000 H         1 <0>        0.00000
    114 H57         1.6500   -2.2688    0.0000 H         1 <0>        0.00000
    115 H58         1.6500   -2.2688    0.0000 H         1 <0>        0.00000
    116 H59        10.2239    1.8563    0.0000 H         1 <0>        0.00000
    117 H60        10.2239    1.8563    0.0000 H         1 <0>        0.00000
    118 H61        10.2239    1.8563    0.0000 H         1 <0>        0.00000
    119 H62        10.2239   -0.6188    0.0000 H         1 <0>        0.00000
    120 H63        10.2239   -0.6188    0.0000 H         1 <0>        0.00000
    121 H64        10.2239   -0.6188    0.0000 H         1 <0>        0.00000
    122 H65        10.2239    4.3313    0.0000 H         1 <0>        0.00000
    123 H66        10.2239    4.3313    0.0000 H         1 <0>        0.00000
    124 H67        10.2239    4.3313    0.0000 H         1 <0>        0.00000
@<TRIPOS>BOND
     1    1   17 1
     2    1   21 1
     3    2   20 1
     4    2   29 1
     5    3   24 1
     6    3   38 1
     7    4   29 1
     8    4   37 1
     9    5   23 2
    10    6   27 1
    11    6   50 1
    12    7   35 1
    13    7   39 1
    14    8   32 1
    15    8   52 1
    16    9   38 1
    17    9   45 1
    18   10   39 2
    19   11   43 1
    20   11   54 1
    21   12   44 1
    22   12   56 1
    23   13   50 2
    24   14   52 2
    25   15   56 2
    26   16   33 1
    27   16   48 1
    28   16   49 1
    29   17   18 1
    30   17   21 1
    31   17   23 1
    32   18   19 1
    33   19   20 1
    34   19   26 1
    35   20   22 1
    36   22   24 1
    37   22   30 1
    38   23   25 1
    39   24   28 1
    40   25   27 1
    41   25   34 1
    42   27   31 1
    43   28   39 1
    44   28   40 1
    45   29   32 1
    46   31   35 1
    47   31   41 1
    48   32   33 1
    49   33   36 1
    50   35   46 1
    51   36   37 1
    52   37   47 1
    53   38   42 1
    54   42   43 1
    55   43   44 1
    56   44   45 1
    57   45   51 1
    58   50   53 1
    59   52   55 1
    60   56   57 1
    61   18   58 1
    62   18   59 1
    63   19   60 1
    64   20   61 1
    65   21   62 1
    66   21   63 1
    67   22   64 1
    68   24   65 1
    69   25   66 1
    70   26   67 1
    71   26   68 1
    72   26   69 1
    73   27   70 1
    74   28   71 1
    75   29   72 1
    76   30   73 1
    77   30   74 1
    78   30   75 1
    79   31   76 1
    80   32   77 1
    81   33   78 1
    82   34   79 1
    83   34   80 1
    84   34   81 1
    85   35   82 1
    86   36   83 1
    87   36   84 1
    88   37   85 1
    89   38   86 1
    90   40   87 1
    91   40   88 1
    92   40   89 1
    93   41   90 1
    94   41   91 1
    95   41   92 1
    96   42   93 1
    97   42   94 1
    98   43   95 1
    99   44   96 1
   100   45   97 1
   101   46   98 1
   102   46   99 1
   103   46  100 1
   104   47  101 1
   105   47  102 1
   106   47  103 1
   107   48  104 1
   108   48  105 1
   109   48  106 1
   110   49  107 1
   111   49  108 1
   112   49  109 1
   113   51  110 1
   114   51  111 1
   115   51  112 1
   116   53  113 1
   117   53  114 1
   118   53  115 1
   119   54  116 1
   120   54  117 1
   121   54  118 1
   122   55  119 1
   123   55  120 1
   124   55  121 1
   125   57  122 1
   126   57  123 1
   127   57  124 1
@<TRIPOS>SUBSTRUCTURE
     1 <0>         1 GROUP 0 A     ****
@<TRIPOS>MOLECULE
*****
   38    37     1     0     0
SMALL
NO_CHARGES

@<TRIPOS>ATOM
      1 C1          5.8224    1.0711    0.0000 C.3       1 <0>        0.00000
      2 C2          6.1286    1.8372    0.0000 C.3       1 <0>        0.00000
      3 C3          6.4348    2.6033    0.0000 C.3       1 <0>        0.00000
      4 C4          5.3625    2.1434    0.0000 C.3       1 <0>        0.00000
      5 O1          4.7143    1.6331    0.0000 O.3       1 <0>        0.00000
      6 C5          6.8946    1.5310    0.0000 C.3       1 <0>        0.00000
      7 O2          7.0125    0.7145    0.0000 O.3       1 <0>        0.00000
      8 C6          7.5429    2.0413    0.0000 C.2       1 <0>        0.00000
      9 O3          7.4250    2.8579    0.0000 O.2       1 <0>        0.00000
     10 N1          8.3089    1.7351    0.0000 N.am      1 <0>        0.00000
     11 C7          8.9571    2.2455    0.0000 C.3       1 <0>        0.00000
     12 C8          9.7232    1.9393    0.0000 C.3       1 <0>        0.00000
     13 C9         10.3714    2.4496    0.0000 C.2       1 <0>        0.00000
     14 O4         10.2536    3.2662    0.0000 O.2       1 <0>        0.00000
     15 N2         11.1375    2.1434    0.0000 N.am      1 <0>        0.00000
     16 C10        11.7857    2.6537    0.0000 C.2       1 <0>        0.00000
     17 C11        12.5518    2.3475    0.0000 C.2       1 <0>        0.00000
     18 S1         13.2000    2.8579    0.0000 S.3       1 <0>        0.00000
     19 H1          5.8224    1.0711    0.0000 H         1 <0>        0.00000
     20 H2          5.8224    1.0711    0.0000 H         1 <0>        0.00000
     21 H3          5.8224    1.0711    0.0000 H         1 <0>        0.00000
     22 H4          6.4348    2.6033    0.0000 H         1 <0>        0.00000
     23 H5          6.4348    2.6033    0.0000 H         1 <0>        0.00000
     24 H6          6.4348    2.6033    0.0000 H         1 <0>        0.00000
     25 H7          5.3625    2.1434    0.0000 H         1 <0>        0.00000
     26 H8          5.3625    2.1434    0.0000 H         1 <0>        0.00000
     27 H9          4.7143    1.6331    0.0000 H         1 <0>        0.00000
     28 H10         6.8946    1.5310    0.0000 H         1 <0>        0.00000
     29 H11         7.0125    0.7145    0.0000 H         1 <0>        0.00000
     30 H12         8.3089    1.7351    0.0000 H         1 <0>        0.00000
     31 H13         8.9571    2.2455    0.0000 H         1 <0>        0.00000
     32 H14         8.9571    2.2455    0.0000 H         1 <0>        0.00000
     33 H15         9.7232    1.9393    0.0000 H         1 <0>        0.00000
     34 H16         9.7232    1.9393    0.0000 H         1 <0>        0.00000
     35 H17        11.1375    2.1434    0.0000 H         1 <0>        0.00000
     36 H18        11.7857    2.6537    0.0000 H         1 <0>        0.00000
     37 H19        12.5518    2.3475    0.0000 H         1 <0>        0.00000
     38 H20        13.2000    2.8579    0.0000 H         1 <0>        0.00000
@<TRIPOS>BOND
     1    1    2 1
     2    2    3 1
     3    2    4 1
     4    4    5 1
     5    2    6 1
     6    6    7 1
     7    6    8 1
     8    8    9 2
     9    8   10 am
    10   10   11 1
    11   11   12 1
    12   12   13 1
    13   13   14 2
    14   13   15 am
    15   15   16 1
    16   16   17 2
    17   17   18 1
    18    1   19 1
    19    1   20 1
    20    1   21 1
    21    3   22 1
    22    3   23 1
    23    3   24 1
    24    4   25 1
    25    4   26 1
    26    5   27 1
    27    6   28 1
    28    7   29 1
    29   10   30 1
    30   11   31 1
    31   11   32 1
    32   12   33 1
    33   12   34 1
    34   15   35 1
    35   16   36 1
    36   17   37 1
    37   18   38 1
@<TRIPOS>SUBSTRUCTURE
     1 <0>         1 GROUP 0 A     ****
@<TRIPOS>MOLECULE
246
   49    53     1     0     0
SMALL
NO_CHARGES

@<TRIPOS>ATOM
      1 Cl1         5.8073    3.0921    0.0000 Cl        1 <0>        0.00000
      2 S1          1.6500   -1.3068    0.0000 S.3       1 <0>        0.00000
      3 O1         10.0379    2.2671    0.0000 O.2       1 <0>        0.00000
      4 N1          5.0928    0.2045    0.0000 N.3       1 <0>        0.00000
      5 N2          3.6638   -0.6205    0.0000 N.pl3     1 <0>        0.00000
      6 N3          2.2004   -0.6988    0.0000 N.ar      1 <0>        0.00000
      7 N4          8.7314    2.9310    0.0000 N.am      1 <0>        0.00000
      8 C1          5.0928   -0.6205    0.0000 C.3       1 <0>        0.00000
      9 C2          4.3783    0.6170    0.0000 C.3       1 <0>        0.00000
     10 C3          4.3783   -1.0330    0.0000 C.3       1 <0>        0.00000
     11 C4          3.6638    0.2045    0.0000 C.3       1 <0>        0.00000
     12 C5          5.8073    0.6170    0.0000 C.3       1 <0>        0.00000
     13 C6          5.8073    1.4420    0.0000 C.3       1 <0>        0.00000
     14 C7          2.9494   -1.0330    0.0000 C.ar      1 <0>        0.00000
     15 C8          6.5218    1.8546    0.0000 C.ar      1 <0>        0.00000
     16 C9          2.8643   -1.8488    0.0000 C.ar      1 <0>        0.00000
     17 C10         7.9507    1.8546    0.0000 C.ar      1 <0>        0.00000
     18 C11         7.2362    1.4420    0.0000 C.ar      1 <0>        0.00000
     19 C12         7.9507    2.6796    0.0000 C.ar      1 <0>        0.00000
     20 C13         6.5218    2.6796    0.0000 C.ar      1 <0>        0.00000
     21 C14         8.7314    1.6031    0.0000 C.3       1 <0>        0.00000
     22 C15         2.0570   -2.0189    0.0000 C.ar      1 <0>        0.00000
     23 C16         7.2362    3.0921    0.0000 C.ar      1 <0>        0.00000
     24 C17         9.2129    2.2671    0.0000 C.2       1 <0>        0.00000
     25 C18         3.4153   -2.4628    0.0000 C.ar      1 <0>        0.00000
     26 C19         1.8007   -2.8031    0.0000 C.ar      1 <0>        0.00000
     27 C20         3.1590   -3.2470    0.0000 C.ar      1 <0>        0.00000
     28 C21         2.3517   -3.4171    0.0000 C.ar      1 <0>        0.00000
     29 H1          8.7314    2.9310    0.0000 H         1 <0>        0.00000
     30 H2          5.0928   -0.6205    0.0000 H         1 <0>        0.00000
     31 H3          5.0928   -0.6205    0.0000 H         1 <0>        0.00000
     32 H4          4.3783    0.6170    0.0000 H         1 <0>        0.00000
     33 H5          4.3783    0.6170    0.0000 H         1 <0>        0.00000
     34 H6          4.3783   -1.0330    0.0000 H         1 <0>        0.00000
     35 H7          4.3783   -1.0330    0.0000 H         1 <0>        0.00000
     36 H8          3.6638    0.2045    0.0000 H         1 <0>        0.00000
     37 H9          3.6638    0.2045    0.0000 H         1 <0>        0.00000
     38 H10         5.8073    0.6170    0.0000 H         1 <0>        0.00000
     39 H11         5.8073    0.6170    0.0000 H         1 <0>        0.00000
     40 H12         5.8073    1.4420    0.0000 H         1 <0>        0.00000
     41 H13         5.8073    1.4420    0.0000 H         1 <0>        0.00000
     42 H14         7.2362    1.4420    0.0000 H         1 <0>        0.00000
     43 H15         8.7314    1.6031    0.0000 H         1 <0>        0.00000
     44 H16         8.7314    1.6031    0.0000 H         1 <0>        0.00000
     45 H17         7.2362    3.0921    0.0000 H         1 <0>        0.00000
     46 H18         3.4153   -2.4628    0.0000 H         1 <0>        0.00000
     47 H19         1.8007   -2.8031    0.0000 H         1 <0>        0.00000
     48 H20         3.1590   -3.2470    0.0000 H         1 <0>        0.00000
     49 H21         2.3517   -3.4171    0.0000 H         1 <0>        0.00000
@<TRIPOS>BOND
     1    1   20 1
     2    2    6 1
     3    2   22 1
     4    3   24 2
     5    4    8 1
     6    4    9 1
     7    4   12 1
     8    5   10 1
     9    5   11 1
    10    5   14 1
    11    6   14 2
    12    7   19 1
    13    7   24 am
    14    8   10 1
    15    9   11 1
    16   12   13 1
    17   13   15 1
    18   14   16 1
    19   15   18 ar
    20   15   20 ar
    21   16   22 ar
    22   16   25 ar
    23   17   18 ar
    24   17   19 ar
    25   17   21 1
    26   19   23 ar
    27   20   23 ar
    28   21   24 1
    29   22   26 ar
    30   25   27 ar
    31   26   28 ar
    32   27   28 ar
    33    7   29 1
    34    8   30 1
    35    8   31 1
    36    9   32 1
    37    9   33 1
    38   10   34 1
    39   10   35 1
    40   11   36 1
    41   11   37 1
    42   12   38 1
    43   12   39 1
    44   13   40 1
    45   13   41 1
    46   18   42 1
    47   21   43 1
    48   21   44 1
    49   23   45 1
    50   25   46 1
    51   26   47 1
    52   27   48 1
    53   28   49 1
@<TRIPOS>SUBSTRUCTURE
     1 <0>         1 GROUP 0 A     ****
@<TRIPOS>MOLECULE
*****
  104   110     1     0     0
SMALL
NO_CHARGES

@<TRIPOS>ATOM
      1 C1          8.2225   -6.5717    0.0000 C.2       1 <0>        0.00000
      2 C2          3.5954   -5.0748    0.0000 C.3       1 <0>        0.00000
      3 C3          2.9555   -4.0992    0.0000 C.3       1 <0>        0.00000
      4 C4          4.5710   -4.4350    0.0000 C.3       1 <0>        0.00000
      5 C5         11.4300   -2.4900    0.0000 C.3       1 <0>        0.00000
      6 C6          7.5882   -6.0441    0.0000 C.2       1 <0>        0.00000
      7 C7          5.3861    0.0301    0.0000 C.3       1 <0>        0.00000
      8 C8          4.6027   -0.2284    0.0000 C.3       1 <0>        0.00000
      9 C9          6.0017   -0.5192    0.0000 C.3       1 <0>        0.00000
     10 C10         4.4348   -1.0361    0.0000 C.3       1 <0>        0.00000
     11 C11         6.7852   -0.2607    0.0000 C.3       1 <0>        0.00000
     12 C12        10.1988   -1.3915    0.0000 C.ar      1 <0>        0.00000
     13 C13         3.3479   -8.2311    0.0000 C.3       1 <0>        0.00000
     14 C14         4.1701   -8.2994    0.0000 C.3       1 <0>        0.00000
     15 C15         9.5833   -0.8423    0.0000 C.ar      1 <0>        0.00000
     16 C16         2.8679   -1.5531    0.0000 C.3       1 <0>        0.00000
     17 C17         9.2475   -2.4577    0.0000 C.ar      1 <0>        0.00000
     18 C18         6.6972   -3.3965    0.0000 C.3       1 <0>        0.00000
     19 C19         6.2866   -6.9639    0.0000 C.3       1 <0>        0.00000
     20 C20         5.4980   -2.9424    0.0000 C.3       1 <0>        0.00000
     21 C21         3.6513   -1.2946    0.0000 C.3       1 <0>        0.00000
     22 C22         6.8142   -6.3296    0.0000 C.3       1 <0>        0.00000
     23 C23        10.0309   -2.1993    0.0000 C.ar      1 <0>        0.00000
     24 C24         6.2815   -2.6839    0.0000 C.3       1 <0>        0.00000
     25 C25         3.8182   -7.5532    0.0000 C.3       1 <0>        0.00000
     26 C26         8.7998   -1.1007    0.0000 C.ar      1 <0>        0.00000
     27 C27         7.4007   -0.8100    0.0000 C.ar      1 <0>        0.00000
     28 C28         8.6319   -1.9085    0.0000 C.ar      1 <0>        0.00000
     29 C29         6.1480   -4.0121    0.0000 C.3       1 <0>        0.00000
     30 C30         3.4834   -2.1023    0.0000 C.3       1 <0>        0.00000
     31 C31         3.9311   -3.4593    0.0000 C.3       1 <0>        0.00000
     32 C32         6.3649   -4.8080    0.0000 C.2       1 <0>        0.00000
     33 C33         7.2329   -1.6177    0.0000 C.ar      1 <0>        0.00000
     34 C34         4.5467   -4.0086    0.0000 C.2       1 <0>        0.00000
     35 C35         5.1789   -6.1215    0.0000 C.2       1 <0>        0.00000
     36 C36         2.5321   -3.1685    0.0000 C.2       1 <0>        0.00000
     37 C37         3.7632   -4.2671    0.0000 C.3       1 <0>        0.00000
     38 C38         6.0011   -6.1899    0.0000 C.3       1 <0>        0.00000
     39 N1          8.1842   -0.5515    0.0000 N.ar      1 <0>        0.00000
     40 N2          7.8484   -2.1670    0.0000 N.ar      1 <0>        0.00000
     41 N3          3.1477   -3.7178    0.0000 N.2       1 <0>        0.00000
     42 N4          5.7841   -5.3939    0.0000 N.2       1 <0>        0.00000
     43 N5          4.7087   -6.7994    0.0000 N.2       1 <0>        0.00000
     44 N6          5.3302   -3.7501    0.0000 N.am      1 <0>        0.00000
     45 O1          7.1628   -5.0181    0.0000 O.3       1 <0>        0.00000
     46 O2          4.8857   -4.7607    0.0000 O.2       1 <0>        0.00000
     47 O3          4.8270   -5.3754    0.0000 O.3       1 <0>        0.00000
     48 O4          1.7486   -3.4270    0.0000 O.3       1 <0>        0.00000
     49 O5          3.0643   -6.6627    0.0000 O.2       1 <0>        0.00000
     50 O6          3.9548   -5.9089    0.0000 O.2       1 <0>        0.00000
     51 O7         10.6465   -2.7485    0.0000 O.3       1 <0>        0.00000
     52 O8          6.4494   -1.8762    0.0000 O.3       1 <0>        0.00000
     53 O9          2.7000   -2.3608    0.0000 O.3       1 <0>        0.00000
     54 S1          3.8865   -6.7310    0.0000 S.o2      1 <0>        0.00000
     55 H1          3.3928   -0.5111    0.0000 H         1 <0>        0.00000
     56 H2          7.2903   -7.0034    0.0000 H         1 <0>        0.00000
     57 H3          7.0958   -2.5512    0.0000 H         1 <0>        0.00000
     58 H4          6.9510   -4.2011    0.0000 H         1 <0>        0.00000
     59 H5          2.6757   -1.9344    0.0000 H         1 <0>        0.00000
     60 H6          4.1896   -4.2428    0.0000 H         1 <0>        0.00000
     61 H7          8.2225   -6.5717    0.0000 H         1 <0>        0.00000
     62 H8          8.2225   -6.5717    0.0000 H         1 <0>        0.00000
     63 H9          3.5954   -5.0748    0.0000 H         1 <0>        0.00000
     64 H10         3.5954   -5.0748    0.0000 H         1 <0>        0.00000
     65 H11         3.5954   -5.0748    0.0000 H         1 <0>        0.00000
     66 H12         2.9555   -4.0992    0.0000 H         1 <0>        0.00000
     67 H13         2.9555   -4.0992    0.0000 H         1 <0>        0.00000
     68 H14         2.9555   -4.0992    0.0000 H         1 <0>        0.00000
     69 H15         4.5710   -4.4350    0.0000 H         1 <0>        0.00000
     70 H16         4.5710   -4.4350    0.0000 H         1 <0>        0.00000
     71 H17         4.5710   -4.4350    0.0000 H         1 <0>        0.00000
     72 H18        11.4300   -2.4900    0.0000 H         1 <0>        0.00000
     73 H19        11.4300   -2.4900    0.0000 H         1 <0>        0.00000
     74 H20        11.4300   -2.4900    0.0000 H         1 <0>        0.00000
     75 H21         7.5882   -6.0441    0.0000 H         1 <0>        0.00000
     76 H22         5.3861    0.0301    0.0000 H         1 <0>        0.00000
     77 H23         5.3861    0.0301    0.0000 H         1 <0>        0.00000
     78 H24         4.6027   -0.2284    0.0000 H         1 <0>        0.00000
     79 H25         4.6027   -0.2284    0.0000 H         1 <0>        0.00000
     80 H26         6.0017   -0.5192    0.0000 H         1 <0>        0.00000
     81 H27         6.0017   -0.5192    0.0000 H         1 <0>        0.00000
     82 H28         4.4348   -1.0361    0.0000 H         1 <0>        0.00000
     83 H29         4.4348   -1.0361    0.0000 H         1 <0>        0.00000
     84 H30         6.7852   -0.2607    0.0000 H         1 <0>        0.00000
     85 H31         6.7852   -0.2607    0.0000 H         1 <0>        0.00000
     86 H32        10.1988   -1.3915    0.0000 H         1 <0>        0.00000
     87 H33         3.3479   -8.2311    0.0000 H         1 <0>        0.00000
     88 H34         3.3479   -8.2311    0.0000 H         1 <0>        0.00000
     89 H35         4.1701   -8.2994    0.0000 H         1 <0>        0.00000
     90 H36         4.1701   -8.2994    0.0000 H         1 <0>        0.00000
     91 H37         9.5833   -0.8423    0.0000 H         1 <0>        0.00000
     92 H38         2.8679   -1.5531    0.0000 H         1 <0>        0.00000
     93 H39         2.8679   -1.5531    0.0000 H         1 <0>        0.00000
     94 H40         9.2475   -2.4577    0.0000 H         1 <0>        0.00000
     95 H41         6.6972   -3.3965    0.0000 H         1 <0>        0.00000
     96 H42         6.6972   -3.3965    0.0000 H         1 <0>        0.00000
     97 H43         6.2866   -6.9639    0.0000 H         1 <0>        0.00000
     98 H44         6.2866   -6.9639    0.0000 H         1 <0>        0.00000
     99 H45         5.4980   -2.9424    0.0000 H         1 <0>        0.00000
    100 H46         5.4980   -2.9424    0.0000 H         1 <0>        0.00000
    101 H47         3.8182   -7.5532    0.0000 H         1 <0>        0.00000
    102 H48         7.1628   -5.0181    0.0000 H         1 <0>        0.00000
    103 H49         4.8270   -5.3754    0.0000 H         1 <0>        0.00000
    104 H50         1.7486   -3.4270    0.0000 H         1 <0>        0.00000
@<TRIPOS>BOND
     1    1    6 2
     2    7    8 1
     3    7    9 1
     4    8   10 1
     5    9   11 1
     6   13   14 1
     7   12   15 ar
     8   10   21 1
     9   16   21 1
    10    6   22 1
    11   19   22 1
    12   12   23 ar
    13   17   23 ar
    14   18   24 1
    15   20   24 1
    16   13   25 1
    17   14   25 1
    18   15   26 ar
    19   11   27 1
    20   17   28 ar
    21   26   28 ar
    22   18   29 1
    23   16   30 1
    24   21   30 1
    25   29   32 1
    26   27   33 ar
    27   31   34 1
    28    2   37 1
    29    3   37 1
    30    4   37 1
    31   31   37 1
    32   19   38 1
    33   22   38 1
    34   35   38 1
    35   26   39 ar
    36   27   39 ar
    37   28   40 ar
    38   33   40 ar
    39   31   41 1
    40   36   41 2
    41   32   42 2
    42   38   42 1
    43   35   43 2
    44   20   44 1
    45   29   44 1
    46   34   44 am
    47   32   45 1
    48   34   46 2
    49   35   47 1
    50   36   48 1
    51    5   51 1
    52   23   51 1
    53   24   52 1
    54   33   52 1
    55   30   53 1
    56   36   53 1
    57   25   54 1
    58   43   54 1
    59   49   54 2
    60   50   54 2
    61   21   55 1
    62   22   56 1
    63   24   57 1
    64   29   58 1
    65   30   59 1
    66   31   60 1
    67    1   61 1
    68    1   62 1
    69    2   63 1
    70    2   64 1
    71    2   65 1
    72    3   66 1
    73    3   67 1
    74    3   68 1
    75    4   69 1
    76    4   70 1
    77    4   71 1
    78    5   72 1
    79    5   73 1
    80    5   74 1
    81    6   75 1
    82    7   76 1
    83    7   77 1
    84    8   78 1
    85    8   79 1
    86    9   80 1
    87    9   81 1
    88   10   82 1
    89   10   83 1
    90   11   84 1
    91   11   85 1
    92   12   86 1
    93   13   87 1
    94   13   88 1
    95   14   89 1
    96   14   90 1
    97   15   91 1
    98   16   92 1
    99   16   93 1
   100   17   94 1
   101   18   95 1
   102   18   96 1
   103   19   97 1
   104   19   98 1
   105   20   99 1
   106   20  100 1
   107   25  101 1
   108   45  102 1
   109   47  103 1
   110   48  104 1
@<TRIPOS>SUBSTRUCTURE
     1 <0>         1 GROUP 0 A     ****
@<TRIPOS>MOLECULE
*****
   40    41     1     0     0
SMALL
NO_CHARGES

@<TRIPOS>ATOM
      1 O1          3.7935    1.2433    0.0000 O.2       1 <0>        0.00000
      2 N1          3.0791    0.0058    0.0000 N.am      1 <0>        0.00000
      3 N2          5.6350    1.9578    0.0000 N.3       1 <0>        0.00000
      4 C1          4.5080    0.0058    0.0000 C.3       1 <0>        0.00000
      5 C2          4.9205    0.7202    0.0000 C.3       1 <0>        0.00000
      6 C3          5.3330    0.0058    0.0000 C.3       1 <0>        0.00000
      7 C4          4.9205    1.5453    0.0000 C.3       1 <0>        0.00000
      8 C5          4.5080   -0.8192    0.0000 C.ar      1 <0>        0.00000
      9 C6          3.7935    0.4183    0.0000 C.2       1 <0>        0.00000
     10 C7          5.2224   -1.2318    0.0000 C.ar      1 <0>        0.00000
     11 C8          3.7935   -1.2318    0.0000 C.ar      1 <0>        0.00000
     12 C9          3.0791   -0.8192    0.0000 C.3       1 <0>        0.00000
     13 C10         2.3645    0.4183    0.0000 C.3       1 <0>        0.00000
     14 C11         5.2224   -2.0568    0.0000 C.ar      1 <0>        0.00000
     15 C12         3.7935   -2.0568    0.0000 C.ar      1 <0>        0.00000
     16 C13         4.5080   -2.4693    0.0000 C.ar      1 <0>        0.00000
     17 C14         2.3645   -1.2318    0.0000 C.3       1 <0>        0.00000
     18 C15         1.6500    0.0058    0.0000 C.3       1 <0>        0.00000
     19 H1          5.6350    1.9578    0.0000 H         1 <0>        0.00000
     20 H2          5.6350    1.9578    0.0000 H         1 <0>        0.00000
     21 H3          4.9205    0.7202    0.0000 H         1 <0>        0.00000
     22 H4          5.3330    0.0058    0.0000 H         1 <0>        0.00000
     23 H5          5.3330    0.0058    0.0000 H         1 <0>        0.00000
     24 H6          4.9205    1.5453    0.0000 H         1 <0>        0.00000
     25 H7          4.9205    1.5453    0.0000 H         1 <0>        0.00000
     26 H8          5.2224   -1.2318    0.0000 H         1 <0>        0.00000
     27 H9          3.7935   -1.2318    0.0000 H         1 <0>        0.00000
     28 H10         3.0791   -0.8192    0.0000 H         1 <0>        0.00000
     29 H11         3.0791   -0.8192    0.0000 H         1 <0>        0.00000
     30 H12         2.3645    0.4183    0.0000 H         1 <0>        0.00000
     31 H13         2.3645    0.4183    0.0000 H         1 <0>        0.00000
     32 H14         5.2224   -2.0568    0.0000 H         1 <0>        0.00000
     33 H15         3.7935   -2.0568    0.0000 H         1 <0>        0.00000
     34 H16         4.5080   -2.4693    0.0000 H         1 <0>        0.00000
     35 H17         2.3645   -1.2318    0.0000 H         1 <0>        0.00000
     36 H18         2.3645   -1.2318    0.0000 H         1 <0>        0.00000
     37 H19         2.3645   -1.2318    0.0000 H         1 <0>        0.00000
     38 H20         1.6500    0.0058    0.0000 H         1 <0>        0.00000
     39 H21         1.6500    0.0058    0.0000 H         1 <0>        0.00000
     40 H22         1.6500    0.0058    0.0000 H         1 <0>        0.00000
@<TRIPOS>BOND
     1    1    9 2
     2    2    9 am
     3    2   12 1
     4    2   13 1
     5    3    7 1
     6    4    5 1
     7    4    6 1
     8    4    8 1
     9    4    9 1
    10    5    6 1
    11    5    7 1
    12    8   10 ar
    13    8   11 ar
    14   10   14 ar
    15   11   15 ar
    16   12   17 1
    17   13   18 1
    18   14   16 ar
    19   15   16 ar
    20    3   19 1
    21    3   20 1
    22    5   21 1
    23    6   22 1
    24    6   23 1
    25    7   24 1
    26    7   25 1
    27   10   26 1
    28   11   27 1
    29   12   28 1
    30   12   29 1
    31   13   30 1
    32   13   31 1
    33   14   32 1
    34   15   33 1
    35   16   34 1
    36   17   35 1
    37   17   36 1
    38   17   37 1
    39   18   38 1
    40   18   39 1
    41   18   40 1
@<TRIPOS>SUBSTRUCTURE
     1 <0>         1 GROUP 0 A     ****
@<TRIPOS>MOLECULE
*****
    5     4     1     0     0
SMALL
NO_CHARGES

@<TRIPOS>ATOM
      1 O1          0.8250   -0.8250    0.0000 O.3       1 <0>        0.00000
      2 P1          0.8250    0.0000    0.0000 P.3       1 <0>        0.00000
      3 O2          0.8250    0.8250    0.0000 O.3       1 <0>        0.00000
      4 F1          1.6500    0.0000    0.0000 F         1 <0>        0.00000
      5 O3          0.0000    0.0000    0.0000 O.2       1 <0>        0.00000
@<TRIPOS>BOND
     1    1    2 1
     2    2    3 1
     3    2    4 1
     4    2    5 2
@<TRIPOS>SUBSTRUCTURE
     1 <0>         1 GROUP 0 A     ****
@<TRIPOS>MOLECULE
LS2
   42    45     1     0     0
SMALL
NO_CHARGES

@<TRIPOS>ATOM
      1 N1         -1.2371   -3.1206    0.0000 N.am      1 <0>        0.00000
      2 C1         -1.3234   -2.3001    0.0000 C.ar      1 <0>        0.00000
      3 C2         -0.5697   -1.9646    0.0000 C.ar      1 <0>        0.00000
      4 C3          0.8073   -2.5777    0.0000 C.ar      1 <0>        0.00000
      5 C4          1.2198   -3.2921    0.0000 C.ar      1 <0>        0.00000
      6 C5          0.8073   -4.0066    0.0000 C.ar      1 <0>        0.00000
      7 C6         -0.0177   -4.0066    0.0000 C.ar      1 <0>        0.00000
      8 C7         -0.4302   -3.2921    0.0000 C.ar      1 <0>        0.00000
      9 C8         -0.0177   -2.5777    0.0000 C.ar      1 <0>        0.00000
     10 O1         -2.0378   -1.8876    0.0000 O.2       1 <0>        0.00000
     11 N2         -0.3982   -1.1576    0.0000 N.2       1 <0>        0.00000
     12 S1          1.3594   -1.9646    0.0000 S.3       1 <0>        0.00000
     13 C9          2.1130   -2.3001    0.0000 C.ar      1 <0>        0.00000
     14 N3          2.0268   -3.1206    0.0000 N.ar      1 <0>        0.00000
     15 N4         -1.0113   -0.6056    0.0000 N.pl3     1 <0>        0.00000
     16 C10        -0.8397    0.2014    0.0000 C.ar      1 <0>        0.00000
     17 C11        -1.4528    0.7534    0.0000 C.ar      1 <0>        0.00000
     18 C12        -1.2813    1.5604    0.0000 C.ar      1 <0>        0.00000
     19 C13        -0.4967    1.8154    0.0000 C.ar      1 <0>        0.00000
     20 C14         0.1164    1.2633    0.0000 C.ar      1 <0>        0.00000
     21 C15        -0.0551    0.4564    0.0000 C.ar      1 <0>        0.00000
     22 C16        -0.3252    2.6223    0.0000 C.3       1 <0>        0.00000
     23 S2          0.4595    2.8773    0.0000 S.o2      1 <0>        0.00000
     24 O2          0.7144    2.0926    0.0000 O.2       1 <0>        0.00000
     25 O3          0.2045    3.6619    0.0000 O.2       1 <0>        0.00000
     26 N5          1.2441    3.1322    0.0000 N.pl3     1 <0>        0.00000
     27 C17         1.4156    3.9392    0.0000 C.3       1 <0>        0.00000
     28 H1         -1.2371   -3.1206    0.0000 H         1 <0>        0.00000
     29 H2          0.8073   -4.0066    0.0000 H         1 <0>        0.00000
     30 H3         -0.0177   -4.0066    0.0000 H         1 <0>        0.00000
     31 H4          2.1130   -2.3001    0.0000 H         1 <0>        0.00000
     32 H5         -1.0113   -0.6056    0.0000 H         1 <0>        0.00000
     33 H6         -1.4528    0.7534    0.0000 H         1 <0>        0.00000
     34 H7         -1.2813    1.5604    0.0000 H         1 <0>        0.00000
     35 H8          0.1164    1.2633    0.0000 H         1 <0>        0.00000
     36 H9         -0.0551    0.4564    0.0000 H         1 <0>        0.00000
     37 H10        -0.3252    2.6223    0.0000 H         1 <0>        0.00000
     38 H11        -0.3252    2.6223    0.0000 H         1 <0>        0.00000
     39 H12         1.2441    3.1322    0.0000 H         1 <0>        0.00000
     40 H13         1.4156    3.9392    0.0000 H         1 <0>        0.00000
     41 H14         1.4156    3.9392    0.0000 H         1 <0>        0.00000
     42 H15         1.4156    3.9392    0.0000 H         1 <0>        0.00000
@<TRIPOS>BOND
     1    1    2 am
     2    1    8 1
     3    2    3 1
     4    2   10 2
     5    3    9 1
     6    3   11 2
     7    4    5 ar
     8    4    9 ar
     9    4   12 1
    10    5    6 ar
    11    5   14 1
    12    6    7 ar
    13    7    8 ar
    14    8    9 ar
    15   11   15 1
    16   12   13 1
    17   13   14 2
    18   15   16 1
    19   16   17 ar
    20   16   21 ar
    21   17   18 ar
    22   18   19 ar
    23   19   20 ar
    24   19   22 1
    25   20   21 ar
    26   22   23 1
    27   23   24 2
    28   23   25 2
    29   23   26 1
    30   26   27 1
    31    1   28 1
    32    6   29 1
    33    7   30 1
    34   13   31 1
    35   15   32 1
    36   17   33 1
    37   18   34 1
    38   20   35 1
    39   21   36 1
    40   22   37 1
    41   22   38 1
    42   26   39 1
    43   27   40 1
    44   27   41 1
    45   27   42 1
@<TRIPOS>SUBSTRUCTURE
     1 <0>         1 GROUP 0 A     ****
@<TRIPOS>MOLECULE
1395
   57    63     1     0     0
SMALL
NO_CHARGES

@<TRIPOS>ATOM
      1 O1          3.3963   -1.6419    0.0000 O.3       1 <0>        0.00000
      2 O2          3.6170   -3.0361    0.0000 O.2       1 <0>        0.00000
      3 O3          6.8101    3.0361    0.0000 O.2       1 <0>        0.00000
      4 C1          3.1514    0.0426    0.0000 C.3       1 <0>        0.00000
      5 C2          2.3593    0.0426    0.0000 C.3       1 <0>        0.00000
      6 C3          2.1146   -0.7108    0.0000 C.3       1 <0>        0.00000
      7 C4          3.3963   -0.7108    0.0000 C.3       1 <0>        0.00000
      8 C5          3.6940    0.6641    0.0000 C.3       1 <0>        0.00000
      9 C6          2.7553   -1.1763    0.0000 C.3       1 <0>        0.00000
     10 C7          1.5842   -0.1221    0.0000 C.3       1 <0>        0.00000
     11 C8          3.4095    1.4751    0.0000 C.3       1 <0>        0.00000
     12 C9          4.5023    0.4988    0.0000 C.3       1 <0>        0.00000
     13 C10         3.9747    2.1225    0.0000 C.3       1 <0>        0.00000
     14 C11         4.2005   -0.8947    0.0000 C.3       1 <0>        0.00000
     15 C12         3.1312    2.2886    0.0000 C.3       1 <0>        0.00000
     16 C13         5.0822    1.1330    0.0000 C.3       1 <0>        0.00000
     17 C14         4.7573   -0.2858    0.0000 C.3       1 <0>        0.00000
     18 C15         2.1146   -1.6419    0.0000 C.3       1 <0>        0.00000
     19 C16         4.8167    1.9503    0.0000 C.2       1 <0>        0.00000
     20 C17         3.8838   -1.3350    0.0000 C.3       1 <0>        0.00000
     21 C18         5.9550    0.9334    0.0000 C.3       1 <0>        0.00000
     22 C19         2.3593   -2.3953    0.0000 C.3       1 <0>        0.00000
     23 C20         5.3270    0.3797    0.0000 C.3       1 <0>        0.00000
     24 C21         3.1514   -2.3953    0.0000 C.2       1 <0>        0.00000
     25 C22         5.4054    2.6248    0.0000 C.2       1 <0>        0.00000
     26 C23         6.5590    1.5940    0.0000 C.3       1 <0>        0.00000
     27 C24         6.2824    2.4455    0.0000 C.2       1 <0>        0.00000
     28 H1          2.8892    0.6194    0.0000 H         1 <0>        0.00000
     29 H2          2.2932    0.6727    0.0000 H         1 <0>        0.00000
     30 H3          1.6906   -1.1817    0.0000 H         1 <0>        0.00000
     31 H4          4.1107    1.1415    0.0000 H         1 <0>        0.00000
     32 H5          2.8108    1.2677    0.0000 H         1 <0>        0.00000
     33 H6          5.1216    0.3647    0.0000 H         1 <0>        0.00000
     34 H7          4.0994    2.7439    0.0000 H         1 <0>        0.00000
     35 H8          1.5842   -0.1221    0.0000 H         1 <0>        0.00000
     36 H9          1.5842   -0.1221    0.0000 H         1 <0>        0.00000
     37 H10         4.2005   -0.8947    0.0000 H         1 <0>        0.00000
     38 H11         4.2005   -0.8947    0.0000 H         1 <0>        0.00000
     39 H12         3.1312    2.2886    0.0000 H         1 <0>        0.00000
     40 H13         3.1312    2.2886    0.0000 H         1 <0>        0.00000
     41 H14         4.7573   -0.2858    0.0000 H         1 <0>        0.00000
     42 H15         4.7573   -0.2858    0.0000 H         1 <0>        0.00000
     43 H16         2.1146   -1.6419    0.0000 H         1 <0>        0.00000
     44 H17         2.1146   -1.6419    0.0000 H         1 <0>        0.00000
     45 H18         3.8838   -1.3350    0.0000 H         1 <0>        0.00000
     46 H19         3.8838   -1.3350    0.0000 H         1 <0>        0.00000
     47 H20         3.8838   -1.3350    0.0000 H         1 <0>        0.00000
     48 H21         5.9550    0.9334    0.0000 H         1 <0>        0.00000
     49 H22         5.9550    0.9334    0.0000 H         1 <0>        0.00000
     50 H23         2.3593   -2.3953    0.0000 H         1 <0>        0.00000
     51 H24         2.3593   -2.3953    0.0000 H         1 <0>        0.00000
     52 H25         5.3270    0.3797    0.0000 H         1 <0>        0.00000
     53 H26         5.3270    0.3797    0.0000 H         1 <0>        0.00000
     54 H27         5.3270    0.3797    0.0000 H         1 <0>        0.00000
     55 H28         5.4054    2.6248    0.0000 H         1 <0>        0.00000
     56 H29         6.5590    1.5940    0.0000 H         1 <0>        0.00000
     57 H30         6.5590    1.5940    0.0000 H         1 <0>        0.00000
@<TRIPOS>BOND
     1    1    9 1
     2    1   24 1
     3    2   24 2
     4    3   27 2
     5    4    5 1
     6    4    7 1
     7    4    8 1
     8    4   28 1
     9    5    6 1
    10    5   10 1
    11    5   29 1
    12    6    9 1
    13    6   10 1
    14    6   30 1
    15    7    9 1
    16    7   14 1
    17    7   20 1
    18    8   11 1
    19    8   12 1
    20    8   31 1
    21    9   18 1
    22   11   13 1
    23   11   15 1
    24   11   32 1
    25   12   16 1
    26   12   17 1
    27   12   33 1
    28   13   15 1
    29   13   19 1
    30   13   34 1
    31   14   17 1
    32   16   19 1
    33   16   21 1
    34   16   23 1
    35   18   22 1
    36   19   25 2
    37   21   26 1
    38   22   24 1
    39   25   27 1
    40   26   27 1
    41   10   35 1
    42   10   36 1
    43   14   37 1
    44   14   38 1
    45   15   39 1
    46   15   40 1
    47   17   41 1
    48   17   42 1
    49   18   43 1
    50   18   44 1
    51   20   45 1
    52   20   46 1
    53   20   47 1
    54   21   48 1
    55   21   49 1
    56   22   50 1
    57   22   51 1
    58   23   52 1
    59   23   53 1
    60   23   54 1
    61   25   55 1
    62   26   56 1
    63   26   57 1
@<TRIPOS>SUBSTRUCTURE
     1 <0>         1 GROUP 0 A     ****
@<TRIPOS>MOLECULE
*****
   58    62     1     0     0
SMALL
NO_CHARGES

@<TRIPOS>ATOM
      1 N1          0.3001    0.5690    0.0000 N.am      1 <0>        0.00000
      2 C1          1.1253    0.5690    0.0000 C.2       1 <0>        0.00000
      3 C2          1.1253   -0.2563    0.0000 C.3       1 <0>        0.00000
      4 C3          0.3001   -0.2563    0.0000 C.3       1 <0>        0.00000
      5 C4          3.8887   -0.9941    0.0000 C.ar      1 <0>        0.00000
      6 N2          4.5264   -1.5066    0.0000 N.ar      1 <0>        0.00000
      7 C5         -0.4126    0.9816    0.0000 C.2       1 <0>        0.00000
      8 C6         -1.1253    0.5648    0.0000 C.2       1 <0>        0.00000
      9 C7         -3.3133    0.8939    0.0000 C.2       1 <0>        0.00000
     10 C8          3.0926   -1.2065    0.0000 C.2       1 <0>        0.00000
     11 N3         -3.8636    0.2813    0.0000 N.am      1 <0>        0.00000
     12 N4          1.7130   -0.8356    0.0000 N.am      1 <0>        0.00000
     13 N5          4.1762   -0.2188    0.0000 N.ar      1 <0>        0.00000
     14 C9          2.5049   -0.6189    0.0000 C.2       1 <0>        0.00000
     15 C10        -2.5631    0.5648    0.0000 C.2       1 <0>        0.00000
     16 S1         -0.4126   -0.6689    0.0000 S.3       1 <0>        0.00000
     17 C11         5.2140   -1.0565    0.0000 C.ar      1 <0>        0.00000
     18 C12        -1.8505    0.9774    0.0000 C.2       1 <0>        0.00000
     19 S2          5.0014   -0.2605    0.0000 S.3       1 <0>        0.00000
     20 C13        -0.4208    1.8068    0.0000 C.2       1 <0>        0.00000
     21 C14        -1.1336   -0.2605    0.0000 C.3       1 <0>        0.00000
     22 C15        -3.4510   -0.4313    0.0000 C.3       1 <0>        0.00000
     23 N6          2.8801   -1.9985    0.0000 N.2       1 <0>        0.00000
     24 O1          1.7047    1.1565    0.0000 O.2       1 <0>        0.00000
     25 C16        -2.6465   -0.2563    0.0000 C.3       1 <0>        0.00000
     26 O2         -3.4885    1.7026    0.0000 O.2       1 <0>        0.00000
     27 C17        -4.6888    0.3688    0.0000 C.3       1 <0>        0.00000
     28 O3          2.7175    0.1771    0.0000 O.2       1 <0>        0.00000
     29 N7         -5.9016    0.9065    0.0000 N.3       1 <0>        0.00000
     30 O4          0.2918    2.2194    0.0000 O.2       1 <0>        0.00000
     31 N8          5.9893   -1.3567    0.0000 N.pl3     1 <0>        0.00000
     32 O5         -1.1378    2.2194    0.0000 O.3       1 <0>        0.00000
     33 O6          2.0881   -2.2194    0.0000 O.3       1 <0>        0.00000
     34 C18        -5.2348   -0.2438    0.0000 C.3       1 <0>        0.00000
     35 C19        -5.1014    1.0815    0.0000 C.3       1 <0>        0.00000
     36 C20        -5.9893    0.0895    0.0000 C.3       1 <0>        0.00000
     37 H1          0.5168   -1.0482    0.0000 H         1 <0>        0.00000
     38 H2          1.9503   -0.2563    0.0000 H         1 <0>        0.00000
     39 H3         -4.1343   -0.2421    0.0000 H         1 <0>        0.00000
     40 H4          1.7130   -0.8356    0.0000 H         1 <0>        0.00000
     41 H5         -1.8505    0.9774    0.0000 H         1 <0>        0.00000
     42 H6         -1.1336   -0.2605    0.0000 H         1 <0>        0.00000
     43 H7         -1.1336   -0.2605    0.0000 H         1 <0>        0.00000
     44 H8         -3.4510   -0.4313    0.0000 H         1 <0>        0.00000
     45 H9         -3.4510   -0.4313    0.0000 H         1 <0>        0.00000
     46 H10        -2.6465   -0.2563    0.0000 H         1 <0>        0.00000
     47 H11        -2.6465   -0.2563    0.0000 H         1 <0>        0.00000
     48 H12        -5.9016    0.9065    0.0000 H         1 <0>        0.00000
     49 H13         5.9893   -1.3567    0.0000 H         1 <0>        0.00000
     50 H14         5.9893   -1.3567    0.0000 H         1 <0>        0.00000
     51 H15        -1.1378    2.2194    0.0000 H         1 <0>        0.00000
     52 H16         2.0881   -2.2194    0.0000 H         1 <0>        0.00000
     53 H17        -5.2348   -0.2438    0.0000 H         1 <0>        0.00000
     54 H18        -5.2348   -0.2438    0.0000 H         1 <0>        0.00000
     55 H19        -5.1014    1.0815    0.0000 H         1 <0>        0.00000
     56 H20        -5.1014    1.0815    0.0000 H         1 <0>        0.00000
     57 H21        -5.9893    0.0895    0.0000 H         1 <0>        0.00000
     58 H22        -5.9893    0.0895    0.0000 H         1 <0>        0.00000
@<TRIPOS>BOND
     1    1    2 am
     2    3    4 1
     3    1    4 1
     4    5   10 1
     5    5    6 1
     6    1    7 1
     7    7    8 2
     8    9   15 1
     9   10   14 1
    10    9   11 am
    11    3   12 1
    12    5   13 2
    13   12   14 am
    14   15   18 2
    15    4   16 1
    16    6   17 2
    17    8   18 1
    18   13   19 1
    19    7   20 1
    20    8   21 1
    21   22   25 1
    22   10   23 2
    23    2   24 2
    24   15   25 1
    25    9   26 2
    26   11   27 1
    27   14   28 2
    28   29   35 1
    29   20   30 2
    30   17   31 1
    31   20   32 1
    32   23   33 1
    33   27   34 1
    34   27   35 1
    35   34   36 1
    36    4   37 1
    37    2    3 1
    38   16   21 1
    39   11   22 1
    40   17   19 1
    41   29   36 1
    42    3   38 1
    43   27   39 1
    44   12   40 1
    45   18   41 1
    46   21   42 1
    47   21   43 1
    48   22   44 1
    49   22   45 1
    50   25   46 1
    51   25   47 1
    52   29   48 1
    53   31   49 1
    54   31   50 1
    55   32   51 1
    56   33   52 1
    57   34   53 1
    58   34   54 1
    59   35   55 1
    60   35   56 1
    61   36   57 1
    62   36   58 1
@<TRIPOS>SUBSTRUCTURE
     1 <0>         1 GROUP 0 A     ****
@<TRIPOS>MOLECULE
1400
   35    35     1     0     0
SMALL
NO_CHARGES

@<TRIPOS>ATOM
      1 C1         19.1051  -10.2897    0.0000 C.ar      1 <0>        0.00000
      2 C2         19.8217   -9.8748    0.0000 C.ar      1 <0>        0.00000
      3 C3         19.1086  -11.1159    0.0000 C.ar      1 <0>        0.00000
      4 O1         18.3921   -9.8782    0.0000 O.3       1 <0>        0.00000
      5 C4         20.5348  -10.2897    0.0000 C.ar      1 <0>        0.00000
      6 C5         19.8217  -11.5273    0.0000 C.ar      1 <0>        0.00000
      7 C6         17.6789  -10.2931    0.0000 C.2       1 <0>        0.00000
      8 C7         20.5348  -11.1125    0.0000 C.ar      1 <0>        0.00000
      9 N1         21.2514   -9.8748    0.0000 N.4       1 <0>        0.00000
     10 N2         16.9623   -9.8816    0.0000 N.am      1 <0>        0.00000
     11 O2         17.6789  -11.1194    0.0000 O.2       1 <0>        0.00000
     12 C8         22.2317   -9.3332    0.0000 C.3       1 <0>        0.00000
     13 C9         20.8605   -9.2508    0.0000 C.3       1 <0>        0.00000
     14 C10        21.7348  -10.5845    0.0000 C.3       1 <0>        0.00000
     15 C11        16.2526  -10.2965    0.0000 C.3       1 <0>        0.00000
     16 C12        16.9623   -9.0554    0.0000 C.3       1 <0>        0.00000
     17 H1         19.8217   -9.8748    0.0000 H         1 <0>        0.00000
     18 H2         19.1086  -11.1159    0.0000 H         1 <0>        0.00000
     19 H3         19.8217  -11.5273    0.0000 H         1 <0>        0.00000
     20 H4         20.5348  -11.1125    0.0000 H         1 <0>        0.00000
     21 H5         22.2317   -9.3332    0.0000 H         1 <0>        0.00000
     22 H6         22.2317   -9.3332    0.0000 H         1 <0>        0.00000
     23 H7         22.2317   -9.3332    0.0000 H         1 <0>        0.00000
     24 H8         20.8605   -9.2508    0.0000 H         1 <0>        0.00000
     25 H9         20.8605   -9.2508    0.0000 H         1 <0>        0.00000
     26 H10        20.8605   -9.2508    0.0000 H         1 <0>        0.00000
     27 H11        21.7348  -10.5845    0.0000 H         1 <0>        0.00000
     28 H12        21.7348  -10.5845    0.0000 H         1 <0>        0.00000
     29 H13        21.7348  -10.5845    0.0000 H         1 <0>        0.00000
     30 H14        16.2526  -10.2965    0.0000 H         1 <0>        0.00000
     31 H15        16.2526  -10.2965    0.0000 H         1 <0>        0.00000
     32 H16        16.2526  -10.2965    0.0000 H         1 <0>        0.00000
     33 H17        16.9623   -9.0554    0.0000 H         1 <0>        0.00000
     34 H18        16.9623   -9.0554    0.0000 H         1 <0>        0.00000
     35 H19        16.9623   -9.0554    0.0000 H         1 <0>        0.00000
@<TRIPOS>BOND
     1    1    2 ar
     2    1    3 ar
     3    1    4 1
     4    2    5 ar
     5    3    6 ar
     6    4    7 1
     7    5    8 ar
     8    5    9 1
     9    7   10 am
    10    7   11 2
    11    9   12 1
    12    9   13 1
    13    9   14 1
    14   10   15 1
    15   10   16 1
    16    6    8 ar
    17    2   17 1
    18    3   18 1
    19    6   19 1
    20    8   20 1
    21   12   21 1
    22   12   22 1
    23   12   23 1
    24   13   24 1
    25   13   25 1
    26   13   26 1
    27   14   27 1
    28   14   28 1
    29   14   29 1
    30   15   30 1
    31   15   31 1
    32   15   32 1
    33   16   33 1
    34   16   34 1
    35   16   35 1
@<TRIPOS>SUBSTRUCTURE
     1 <0>         1 GROUP 0 A     ****
@<TRIPOS>MOLECULE
RHP
   27    28     1     0     0
SMALL
NO_CHARGES

@<TRIPOS>ATOM
      1 C1         -2.0428    2.5600    0.0000 C.1       1 <0>        0.00000
      2 C2         -1.7878    1.7754    0.0000 C.1       1 <0>        0.00000
      3 C3         -1.5329    0.9907    0.0000 C.3       1 <0>        0.00000
      4 N1         -0.7259    0.8192    0.0000 N.3       1 <0>        0.00000
      5 C4         -0.4710    0.0346    0.0000 C.3       1 <0>        0.00000
      6 C5         -0.9559   -0.6328    0.0000 C.3       1 <0>        0.00000
      7 C6         -0.4710   -1.3003    0.0000 C.3       1 <0>        0.00000
      8 C7          0.3136   -1.0453    0.0000 C.ar      1 <0>        0.00000
      9 C8          0.3136   -0.2203    0.0000 C.ar      1 <0>        0.00000
     10 C9          1.0281    0.1922    0.0000 C.ar      1 <0>        0.00000
     11 C10         1.0281   -1.4578    0.0000 C.ar      1 <0>        0.00000
     12 C11         1.7426   -1.0453    0.0000 C.ar      1 <0>        0.00000
     13 C12         1.7426   -0.2203    0.0000 C.ar      1 <0>        0.00000
     14 O1          2.4570    0.1922    0.0000 O.3       1 <0>        0.00000
     15 H1         -1.0477    0.1259    0.0000 H         1 <0>        0.00000
     16 H2         -2.0428    2.5600    0.0000 H         1 <0>        0.00000
     17 H3         -1.5329    0.9907    0.0000 H         1 <0>        0.00000
     18 H4         -1.5329    0.9907    0.0000 H         1 <0>        0.00000
     19 H5         -0.7259    0.8192    0.0000 H         1 <0>        0.00000
     20 H6         -0.9559   -0.6328    0.0000 H         1 <0>        0.00000
     21 H7         -0.9559   -0.6328    0.0000 H         1 <0>        0.00000
     22 H8         -0.4710   -1.3003    0.0000 H         1 <0>        0.00000
     23 H9         -0.4710   -1.3003    0.0000 H         1 <0>        0.00000
     24 H10         1.0281    0.1922    0.0000 H         1 <0>        0.00000
     25 H11         1.0281   -1.4578    0.0000 H         1 <0>        0.00000
     26 H12         1.7426   -1.0453    0.0000 H         1 <0>        0.00000
     27 H13         2.4570    0.1922    0.0000 H         1 <0>        0.00000
@<TRIPOS>BOND
     1    1    2 3
     2    2    3 1
     3    3    4 1
     4    4    5 1
     5    5    6 1
     6    5    9 1
     7    5   15 1
     8    6    7 1
     9    7    8 1
    10    8    9 ar
    11    8   11 ar
    12    9   10 ar
    13   10   13 ar
    14   11   12 ar
    15   12   13 ar
    16   13   14 1
    17    1   16 1
    18    3   17 1
    19    3   18 1
    20    4   19 1
    21    6   20 1
    22    6   21 1
    23    7   22 1
    24    7   23 1
    25   10   24 1
    26   11   25 1
    27   12   26 1
    28   14   27 1
@<TRIPOS>SUBSTRUCTURE
     1 <0>         1 GROUP 0 A     ****
@<TRIPOS>MOLECULE
*****
   32    32     1     0     0
SMALL
NO_CHARGES

@<TRIPOS>ATOM
      1 N1         -0.7066    1.0881    0.0000 N.3       1 <0>        0.00000
      2 C1         -0.7066    0.2631    0.0000 C.3       1 <0>        0.00000
      3 C2         -1.4211   -0.1494    0.0000 C.3       1 <0>        0.00000
      4 S1         -2.1356    0.2631    0.0000 S.3       1 <0>        0.00000
      5 C3         -2.8501   -0.1494    0.0000 C.3       1 <0>        0.00000
      6 C4         -2.9363   -0.9698    0.0000 C.3       1 <0>        0.00000
      7 C5         -3.7433   -1.1414    0.0000 C.3       1 <0>        0.00000
      8 O1         -4.1558   -0.4269    0.0000 O.3       1 <0>        0.00000
      9 N2         -3.6037    0.1862    0.0000 N.3       1 <0>        0.00000
     10 C6         -4.0788   -1.8950    0.0000 C.3       1 <0>        0.00000
     11 N3         -3.5939   -2.5625    0.0000 N.3       1 <0>        0.00000
     12 C7         -4.8993   -1.9813    0.0000 C.2       1 <0>        0.00000
     13 O2         -5.2349   -2.7350    0.0000 O.3       1 <0>        0.00000
     14 O3         -5.3842   -1.3138    0.0000 O.2       1 <0>        0.00000
     15 C8          0.0078   -0.1494    0.0000 C.2       1 <0>        0.00000
     16 O4          0.7223    0.2631    0.0000 O.3       1 <0>        0.00000
     17 O5          0.0078   -0.9744    0.0000 O.2       1 <0>        0.00000
     18 H1         -0.7066    1.0881    0.0000 H         1 <0>        0.00000
     19 H2         -0.7066    1.0881    0.0000 H         1 <0>        0.00000
     20 H3         -0.7066    0.2631    0.0000 H         1 <0>        0.00000
     21 H4         -1.4211   -0.1494    0.0000 H         1 <0>        0.00000
     22 H5         -1.4211   -0.1494    0.0000 H         1 <0>        0.00000
     23 H6         -2.8501   -0.1494    0.0000 H         1 <0>        0.00000
     24 H7         -2.9363   -0.9698    0.0000 H         1 <0>        0.00000
     25 H8         -2.9363   -0.9698    0.0000 H         1 <0>        0.00000
     26 H9         -3.7433   -1.1414    0.0000 H         1 <0>        0.00000
     27 H10        -3.6037    0.1862    0.0000 H         1 <0>        0.00000
     28 H11        -4.0788   -1.8950    0.0000 H         1 <0>        0.00000
     29 H12        -3.5939   -2.5625    0.0000 H         1 <0>        0.00000
     30 H13        -3.5939   -2.5625    0.0000 H         1 <0>        0.00000
     31 H14        -5.2349   -2.7350    0.0000 H         1 <0>        0.00000
     32 H15         0.7223    0.2631    0.0000 H         1 <0>        0.00000
@<TRIPOS>BOND
     1    1    2 1
     2    2    3 1
     3    3    4 1
     4    4    5 1
     5    5    6 1
     6    6    7 1
     7    7    8 1
     8    8    9 1
     9    5    9 1
    10    7   10 1
    11   10   11 1
    12   10   12 1
    13   12   13 1
    14   12   14 2
    15    2   15 1
    16   15   16 1
    17   15   17 2
    18    1   18 1
    19    1   19 1
    20    2   20 1
    21    3   21 1
    22    3   22 1
    23    5   23 1
    24    6   24 1
    25    6   25 1
    26    7   26 1
    27    9   27 1
    28   10   28 1
    29   11   29 1
    30   11   30 1
    31   13   31 1
    32   16   32 1
@<TRIPOS>SUBSTRUCTURE
     1 <0>         1 GROUP 0 A     ****
@<TRIPOS>MOLECULE
*****
  107   111     1     0     0
SMALL
NO_CHARGES

@<TRIPOS>ATOM
      1 C1         11.4117    6.5906    0.0000 C.3       1 <0>        0.00000
      2 O1         12.1262    6.1781    0.0000 O.3       1 <0>        0.00000
      3 C2         12.1262    5.3531    0.0000 C.ar      1 <0>        0.00000
      4 C3         12.8407    4.9406    0.0000 C.ar      1 <0>        0.00000
      5 C4         12.8407    4.1156    0.0000 C.ar      1 <0>        0.00000
      6 C5         13.5551    3.7031    0.0000 C.2       1 <0>        0.00000
      7 C6         13.5551    2.8781    0.0000 C.2       1 <0>        0.00000
      8 C7         14.2696    2.4656    0.0000 C.2       1 <0>        0.00000
      9 O2         14.2696    1.6406    0.0000 O.2       1 <0>        0.00000
     10 S1         14.9841    2.8781    0.0000 S.3       1 <0>        0.00000
     11 C8         15.6986    2.4656    0.0000 C.3       1 <0>        0.00000
     12 C9         16.4130    2.8781    0.0000 C.3       1 <0>        0.00000
     13 N1         17.1275    2.4656    0.0000 N.am      1 <0>        0.00000
     14 C10        17.8420    2.8781    0.0000 C.2       1 <0>        0.00000
     15 O3         17.8420    3.7031    0.0000 O.2       1 <0>        0.00000
     16 C11        18.5564    2.4656    0.0000 C.3       1 <0>        0.00000
     17 C12        19.2709    2.8781    0.0000 C.3       1 <0>        0.00000
     18 N2         19.9854    2.4656    0.0000 N.am      1 <0>        0.00000
     19 C13        20.6998    2.8781    0.0000 C.2       1 <0>        0.00000
     20 O4         20.6998    3.7031    0.0000 O.2       1 <0>        0.00000
     21 C14        21.4143    2.4656    0.0000 C.3       1 <0>        0.00000
     22 O5         21.1322    1.6904    0.0000 O.3       1 <0>        0.00000
     23 C15        21.9446    3.0976    0.0000 C.3       1 <0>        0.00000
     24 O6         22.0879    3.9101    0.0000 O.3       1 <0>        0.00000
     25 P1         22.8631    4.1922    0.0000 P.3       1 <0>        0.00000
     26 O7         23.1453    3.4170    0.0000 O.3       1 <0>        0.00000
     27 O8         22.5810    4.9675    0.0000 O.2       1 <0>        0.00000
     28 O9         23.6384    4.4744    0.0000 O.3       1 <0>        0.00000
     29 P2         24.2704    3.9441    0.0000 P.3       1 <0>        0.00000
     30 O10        23.7401    3.3121    0.0000 O.3       1 <0>        0.00000
     31 O11        24.8007    4.5761    0.0000 O.2       1 <0>        0.00000
     32 O12        24.9023    3.4138    0.0000 O.3       1 <0>        0.00000
     33 C16        25.6776    3.6960    0.0000 C.3       1 <0>        0.00000
     34 C17        26.3096    3.1657    0.0000 C.3       1 <0>        0.00000
     35 O13        27.1101    3.3652    0.0000 O.3       1 <0>        0.00000
     36 C18        27.5473    2.6656    0.0000 C.3       1 <0>        0.00000
     37 C19        27.0170    2.0336    0.0000 C.3       1 <0>        0.00000
     38 O14        27.2165    1.2331    0.0000 O.3       1 <0>        0.00000
     39 C20        26.2520    2.3427    0.0000 C.3       1 <0>        0.00000
     40 O15        25.5524    1.9055    0.0000 O.3       1 <0>        0.00000
     41 P3         24.8240    2.2928    0.0000 P.3       1 <0>        0.00000
     42 O16        25.2113    3.0212    0.0000 O.3       1 <0>        0.00000
     43 O17        24.4366    1.5644    0.0000 O.3       1 <0>        0.00000
     44 O18        24.0955    2.6801    0.0000 O.2       1 <0>        0.00000
     45 N3         28.3702    2.6081    0.0000 N.pl3     1 <0>        0.00000
     46 C21        28.9005    3.2400    0.0000 C.ar      1 <0>        0.00000
     47 N4         29.6655    2.9310    0.0000 N.ar      1 <0>        0.00000
     48 C22        29.6079    2.1080    0.0000 C.ar      1 <0>        0.00000
     49 C23        30.1810    1.5145    0.0000 C.ar      1 <0>        0.00000
     50 N5         30.9815    1.7141    0.0000 N.pl3     1 <0>        0.00000
     51 N6         29.9536    0.7215    0.0000 N.ar      1 <0>        0.00000
     52 C24        29.1531    0.5219    0.0000 C.ar      1 <0>        0.00000
     53 N7         28.5800    1.1154    0.0000 N.ar      1 <0>        0.00000
     54 C25        28.8074    1.9084    0.0000 C.ar      1 <0>        0.00000
     55 C26        22.2268    2.3223    0.0000 C.3       1 <0>        0.00000
     56 C27        23.0486    2.2504    0.0000 C.3       1 <0>        0.00000
     57 C28        22.4403    1.5255    0.0000 C.3       1 <0>        0.00000
     58 C29        12.1262    3.7031    0.0000 C.ar      1 <0>        0.00000
     59 C30        11.4117    4.1156    0.0000 C.ar      1 <0>        0.00000
     60 O19        10.6973    3.7031    0.0000 O.3       1 <0>        0.00000
     61 C31         9.9828    4.1156    0.0000 C.3       1 <0>        0.00000
     62 C32        11.4117    4.9406    0.0000 C.ar      1 <0>        0.00000
     63 O20        10.6973    5.3531    0.0000 O.3       1 <0>        0.00000
     64 H1         11.4117    6.5906    0.0000 H         1 <0>        0.00000
     65 H2         11.4117    6.5906    0.0000 H         1 <0>        0.00000
     66 H3         11.4117    6.5906    0.0000 H         1 <0>        0.00000
     67 H4         12.8407    4.9406    0.0000 H         1 <0>        0.00000
     68 H5         13.5551    3.7031    0.0000 H         1 <0>        0.00000
     69 H6         13.5551    2.8781    0.0000 H         1 <0>        0.00000
     70 H7         15.6986    2.4656    0.0000 H         1 <0>        0.00000
     71 H8         15.6986    2.4656    0.0000 H         1 <0>        0.00000
     72 H9         16.4130    2.8781    0.0000 H         1 <0>        0.00000
     73 H10        16.4130    2.8781    0.0000 H         1 <0>        0.00000
     74 H11        17.1275    2.4656    0.0000 H         1 <0>        0.00000
     75 H12        18.5564    2.4656    0.0000 H         1 <0>        0.00000
     76 H13        18.5564    2.4656    0.0000 H         1 <0>        0.00000
     77 H14        19.2709    2.8781    0.0000 H         1 <0>        0.00000
     78 H15        19.2709    2.8781    0.0000 H         1 <0>        0.00000
     79 H16        19.9854    2.4656    0.0000 H         1 <0>        0.00000
     80 H17        21.1322    1.6904    0.0000 H         1 <0>        0.00000
     81 H18        21.9446    3.0976    0.0000 H         1 <0>        0.00000
     82 H19        23.1453    3.4170    0.0000 H         1 <0>        0.00000
     83 H20        23.7401    3.3121    0.0000 H         1 <0>        0.00000
     84 H21        25.6776    3.6960    0.0000 H         1 <0>        0.00000
     85 H22        25.6776    3.6960    0.0000 H         1 <0>        0.00000
     86 H23        26.3096    3.1657    0.0000 H         1 <0>        0.00000
     87 H24        27.5473    2.6656    0.0000 H         1 <0>        0.00000
     88 H25        27.0170    2.0336    0.0000 H         1 <0>        0.00000
     89 H26        27.2165    1.2331    0.0000 H         1 <0>        0.00000
     90 H27        26.2520    2.3427    0.0000 H         1 <0>        0.00000
     91 H28        25.2113    3.0212    0.0000 H         1 <0>        0.00000
     92 H29        24.4366    1.5644    0.0000 H         1 <0>        0.00000
     93 H30        28.9005    3.2400    0.0000 H         1 <0>        0.00000
     94 H31        30.9815    1.7141    0.0000 H         1 <0>        0.00000
     95 H32        30.9815    1.7141    0.0000 H         1 <0>        0.00000
     96 H33        29.1531    0.5219    0.0000 H         1 <0>        0.00000
     97 H34        23.0486    2.2504    0.0000 H         1 <0>        0.00000
     98 H35        23.0486    2.2504    0.0000 H         1 <0>        0.00000
     99 H36        23.0486    2.2504    0.0000 H         1 <0>        0.00000
    100 H37        22.4403    1.5255    0.0000 H         1 <0>        0.00000
    101 H38        22.4403    1.5255    0.0000 H         1 <0>        0.00000
    102 H39        22.4403    1.5255    0.0000 H         1 <0>        0.00000
    103 H40        12.1262    3.7031    0.0000 H         1 <0>        0.00000
    104 H41         9.9828    4.1156    0.0000 H         1 <0>        0.00000
    105 H42         9.9828    4.1156    0.0000 H         1 <0>        0.00000
    106 H43         9.9828    4.1156    0.0000 H         1 <0>        0.00000
    107 H44        10.6973    5.3531    0.0000 H         1 <0>        0.00000
@<TRIPOS>BOND
     1    1    2 1
     2    2    3 1
     3    3    4 ar
     4    4    5 ar
     5    5    6 1
     6    6    7 2
     7    7    8 1
     8    8    9 2
     9    8   10 1
    10   10   11 1
    11   11   12 1
    12   12   13 1
    13   13   14 am
    14   14   15 2
    15   14   16 1
    16   16   17 1
    17   17   18 1
    18   18   19 am
    19   19   20 2
    20   19   21 1
    21   21   22 1
    22   21   23 1
    23   23   24 1
    24   24   25 1
    25   25   26 1
    26   25   27 2
    27   25   28 1
    28   28   29 1
    29   29   30 1
    30   29   31 2
    31   29   32 1
    32   32   33 1
    33   33   34 1
    34   34   35 1
    35   35   36 1
    36   36   37 1
    37   37   38 1
    38   37   39 1
    39   34   39 1
    40   39   40 1
    41   40   41 1
    42   41   42 1
    43   41   43 1
    44   41   44 2
    45   36   45 1
    46   45   46 1
    47   46   47 2
    48   47   48 1
    49   48   49 ar
    50   49   50 1
    51   49   51 ar
    52   51   52 ar
    53   52   53 ar
    54   53   54 ar
    55   45   54 1
    56   48   54 ar
    57   23   55 1
    58   21   55 1
    59   55   56 1
    60   55   57 1
    61    5   58 ar
    62   58   59 ar
    63   59   60 1
    64   60   61 1
    65   59   62 ar
    66    3   62 ar
    67   62   63 1
    68    1   64 1
    69    1   65 1
    70    1   66 1
    71    4   67 1
    72    6   68 1
    73    7   69 1
    74   11   70 1
    75   11   71 1
    76   12   72 1
    77   12   73 1
    78   13   74 1
    79   16   75 1
    80   16   76 1
    81   17   77 1
    82   17   78 1
    83   18   79 1
    84   22   80 1
    85   23   81 1
    86   26   82 1
    87   30   83 1
    88   33   84 1
    89   33   85 1
    90   34   86 1
    91   36   87 1
    92   37   88 1
    93   38   89 1
    94   39   90 1
    95   42   91 1
    96   43   92 1
    97   46   93 1
    98   50   94 1
    99   50   95 1
   100   52   96 1
   101   56   97 1
   102   56   98 1
   103   56   99 1
   104   57  100 1
   105   57  101 1
   106   57  102 1
   107   58  103 1
   108   61  104 1
   109   61  105 1
   110   61  106 1
   111   63  107 1
@<TRIPOS>SUBSTRUCTURE
     1 <0>         1 GROUP 0 A     ****
@<TRIPOS>MOLECULE
*****
   56    60     1     0     0
SMALL
NO_CHARGES

@<TRIPOS>ATOM
      1 O1          0.2122    0.6611    0.0000 O.3       1 <0>        0.00000
      2 O2          0.0407   -0.1459    0.0000 O.3       1 <0>        0.00000
      3 C1          0.6538   -0.6979    0.0000 C.3       1 <0>        0.00000
      4 C2          0.0407   -1.2500    0.0000 C.3       1 <0>        0.00000
      5 C3         -0.7439   -0.9950    0.0000 C.ar      1 <0>        0.00000
      6 C4         -1.3570   -1.5471    0.0000 C.ar      1 <0>        0.00000
      7 C5         -2.1416   -1.2921    0.0000 C.ar      1 <0>        0.00000
      8 C6         -2.3132   -0.4852    0.0000 C.ar      1 <0>        0.00000
      9 Br1        -3.0978   -0.2302    0.0000 Br        1 <0>        0.00000
     10 C7         -1.7001    0.0669    0.0000 C.ar      1 <0>        0.00000
     11 C8         -0.9154   -0.1881    0.0000 C.ar      1 <0>        0.00000
     12 N1          1.1387   -0.0305    0.0000 N.2       1 <0>        0.00000
     13 C9          1.9233   -0.2854    0.0000 C.2       1 <0>        0.00000
     14 C10         2.6378    0.1271    0.0000 C.3       1 <0>        0.00000
     15 C11         2.6378    0.9521    0.0000 C.3       1 <0>        0.00000
     16 C12         3.3523    1.3646    0.0000 C.ar      1 <0>        0.00000
     17 C13         3.3523    2.1896    0.0000 C.ar      1 <0>        0.00000
     18 C14         4.0668    2.6021    0.0000 C.ar      1 <0>        0.00000
     19 C15         4.7812    2.1896    0.0000 C.ar      1 <0>        0.00000
     20 C16         4.7812    1.3646    0.0000 C.ar      1 <0>        0.00000
     21 C17         4.0668    0.9521    0.0000 C.ar      1 <0>        0.00000
     22 N2          3.3523   -0.2854    0.0000 N.pl3     1 <0>        0.00000
     23 C18         3.3523   -1.1104    0.0000 C.2       1 <0>        0.00000
     24 C19         2.6378   -1.5229    0.0000 C.2       1 <0>        0.00000
     25 N3          1.9233   -1.1104    0.0000 N.am      1 <0>        0.00000
     26 C20         1.1387   -1.3654    0.0000 C.2       1 <0>        0.00000
     27 O3          0.8838   -2.1500    0.0000 O.2       1 <0>        0.00000
     28 C21         4.0668   -1.5229    0.0000 C.ar      1 <0>        0.00000
     29 C22         4.7812   -1.1104    0.0000 C.ar      1 <0>        0.00000
     30 C23         5.4957   -1.5229    0.0000 C.ar      1 <0>        0.00000
     31 C24         5.4957   -2.3479    0.0000 C.ar      1 <0>        0.00000
     32 O4          6.2102   -2.7604    0.0000 O.3       1 <0>        0.00000
     33 C25         4.7812   -2.7604    0.0000 C.ar      1 <0>        0.00000
     34 C26         4.0668   -2.3479    0.0000 C.ar      1 <0>        0.00000
     35 H1          0.2122    0.6611    0.0000 H         1 <0>        0.00000
     36 H2          0.0407   -1.2500    0.0000 H         1 <0>        0.00000
     37 H3          0.0407   -1.2500    0.0000 H         1 <0>        0.00000
     38 H4         -1.3570   -1.5471    0.0000 H         1 <0>        0.00000
     39 H5         -2.1416   -1.2921    0.0000 H         1 <0>        0.00000
     40 H6         -1.7001    0.0669    0.0000 H         1 <0>        0.00000
     41 H7         -0.9154   -0.1881    0.0000 H         1 <0>        0.00000
     42 H8          2.6378    0.1271    0.0000 H         1 <0>        0.00000
     43 H9          2.6378    0.9521    0.0000 H         1 <0>        0.00000
     44 H10         2.6378    0.9521    0.0000 H         1 <0>        0.00000
     45 H11         3.3523    2.1896    0.0000 H         1 <0>        0.00000
     46 H12         4.0668    2.6021    0.0000 H         1 <0>        0.00000
     47 H13         4.7812    2.1896    0.0000 H         1 <0>        0.00000
     48 H14         4.7812    1.3646    0.0000 H         1 <0>        0.00000
     49 H15         4.0668    0.9521    0.0000 H         1 <0>        0.00000
     50 H16         3.3523   -0.2854    0.0000 H         1 <0>        0.00000
     51 H17         2.6378   -1.5229    0.0000 H         1 <0>        0.00000
     52 H18         4.7812   -1.1104    0.0000 H         1 <0>        0.00000
     53 H19         5.4957   -1.5229    0.0000 H         1 <0>        0.00000
     54 H20         6.2102   -2.7604    0.0000 H         1 <0>        0.00000
     55 H21         4.7812   -2.7604    0.0000 H         1 <0>        0.00000
     56 H22         4.0668   -2.3479    0.0000 H         1 <0>        0.00000
@<TRIPOS>BOND
     1    1    2 1
     2    2    3 1
     3    3    4 1
     4    4    5 1
     5    5    6 ar
     6    6    7 ar
     7    7    8 ar
     8    8    9 1
     9    8   10 ar
    10   10   11 ar
    11    5   11 ar
    12    3   12 1
    13   12   13 2
    14   13   14 1
    15   14   15 1
    16   15   16 1
    17   16   17 ar
    18   17   18 ar
    19   18   19 ar
    20   19   20 ar
    21   20   21 ar
    22   16   21 ar
    23   14   22 1
    24   22   23 1
    25   23   24 2
    26   24   25 1
    27   13   25 1
    28   25   26 am
    29    3   26 1
    30   26   27 2
    31   23   28 1
    32   28   29 ar
    33   29   30 ar
    34   30   31 ar
    35   31   32 1
    36   31   33 ar
    37   33   34 ar
    38   28   34 ar
    39    1   35 1
    40    4   36 1
    41    4   37 1
    42    6   38 1
    43    7   39 1
    44   10   40 1
    45   11   41 1
    46   14   42 1
    47   15   43 1
    48   15   44 1
    49   17   45 1
    50   18   46 1
    51   19   47 1
    52   20   48 1
    53   21   49 1
    54   22   50 1
    55   24   51 1
    56   29   52 1
    57   30   53 1
    58   32   54 1
    59   33   55 1
    60   34   56 1
@<TRIPOS>SUBSTRUCTURE
     1 <0>         1 GROUP 0 A     ****
@<TRIPOS>MOLECULE
*****
   19    19     1     0     0
SMALL
NO_CHARGES

@<TRIPOS>ATOM
      1 C1          2.1434    2.0625    0.0000 C.3       1 <0>        0.00000
      2 O1          2.1434    1.2375    0.0000 O.3       1 <0>        0.00000
      3 C2          1.4289    0.8250    0.0000 C.ar      1 <0>        0.00000
      4 C3          1.4289    0.0000    0.0000 C.ar      1 <0>        0.00000
      5 C4          0.7145   -0.4125    0.0000 C.ar      1 <0>        0.00000
      6 O2          0.7145   -1.2375    0.0000 O.3       1 <0>        0.00000
      7 O3          1.4289   -1.6500    0.0000 O.3       1 <0>        0.00000
      8 C5          0.0000    0.0000    0.0000 C.ar      1 <0>        0.00000
      9 C6          0.0000    0.8250    0.0000 C.ar      1 <0>        0.00000
     10 C7          0.7145    1.2375    0.0000 C.ar      1 <0>        0.00000
     11 O4          0.7145    2.0625    0.0000 O.3       1 <0>        0.00000
     12 H1          2.1434    2.0625    0.0000 H         1 <0>        0.00000
     13 H2          2.1434    2.0625    0.0000 H         1 <0>        0.00000
     14 H3          2.1434    2.0625    0.0000 H         1 <0>        0.00000
     15 H4          1.4289    0.0000    0.0000 H         1 <0>        0.00000
     16 H5          1.4289   -1.6500    0.0000 H         1 <0>        0.00000
     17 H6          0.0000    0.0000    0.0000 H         1 <0>        0.00000
     18 H7          0.0000    0.8250    0.0000 H         1 <0>        0.00000
     19 H8          0.7145    2.0625    0.0000 H         1 <0>        0.00000
@<TRIPOS>BOND
     1    1    2 1
     2    2    3 1
     3    3    4 ar
     4    4    5 ar
     5    5    6 1
     6    6    7 1
     7    5    8 ar
     8    8    9 ar
     9    9   10 ar
    10    3   10 ar
    11   10   11 1
    12    1   12 1
    13    1   13 1
    14    1   14 1
    15    4   15 1
    16    7   16 1
    17    8   17 1
    18    9   18 1
    19   11   19 1
@<TRIPOS>SUBSTRUCTURE
     1 <0>         1 GROUP 0 A     ****
@<TRIPOS>MOLECULE
LIA
   51    53     1     0     0
SMALL
NO_CHARGES

@<TRIPOS>ATOM
      1 N1          1.6834    2.4004    0.0000 N.pl3     1 <0>        0.00000
      2 C1          1.6834    1.5754    0.0000 C.3       1 <0>        0.00000
      3 C2          0.9689    1.1629    0.0000 C.3       1 <0>        0.00000
      4 C3          0.2545    1.5754    0.0000 C.3       1 <0>        0.00000
      5 C4          0.2545    2.4004    0.0000 C.3       1 <0>        0.00000
      6 C5          0.9689    2.8129    0.0000 C.3       1 <0>        0.00000
      7 N2         -0.4600    1.1629    0.0000 N.pl3     1 <0>        0.00000
      8 C6         -0.4600    0.3379    0.0000 C.ar      1 <0>        0.00000
      9 N3         -1.1745   -0.0746    0.0000 N.ar      1 <0>        0.00000
     10 C7         -1.1745   -0.8996    0.0000 C.ar      1 <0>        0.00000
     11 C8         -0.4600   -1.3121    0.0000 C.ar      1 <0>        0.00000
     12 C9          0.2545   -0.8996    0.0000 C.ar      1 <0>        0.00000
     13 N4          0.2545   -0.0746    0.0000 N.ar      1 <0>        0.00000
     14 C10        -0.4600   -2.1371    0.0000 C.2       1 <0>        0.00000
     15 O1          0.2545   -2.5496    0.0000 O.2       1 <0>        0.00000
     16 C11        -1.1745   -2.5496    0.0000 C.ar      1 <0>        0.00000
     17 C12        -1.1745   -3.3746    0.0000 C.ar      1 <0>        0.00000
     18 C13        -1.8890   -3.7871    0.0000 C.ar      1 <0>        0.00000
     19 C14        -2.6034   -3.3746    0.0000 C.ar      1 <0>        0.00000
     20 C15        -2.6034   -2.5496    0.0000 C.ar      1 <0>        0.00000
     21 C16        -1.8890   -2.1371    0.0000 C.ar      1 <0>        0.00000
     22 O2         -1.8890   -1.3121    0.0000 O.3       1 <0>        0.00000
     23 C17        -2.6034   -0.8996    0.0000 C.3       1 <0>        0.00000
     24 F1         -0.4600   -3.7871    0.0000 F         1 <0>        0.00000
     25 F2         -1.8890   -4.6121    0.0000 F         1 <0>        0.00000
     26 N5          0.9689   -1.3121    0.0000 N.pl3     1 <0>        0.00000
     27 S1          2.3979    2.8129    0.0000 S.o2      1 <0>        0.00000
     28 C18         3.1123    3.2254    0.0000 C.3       1 <0>        0.00000
     29 O3          2.8104    2.0984    0.0000 O.2       1 <0>        0.00000
     30 O4          1.9854    3.5273    0.0000 O.2       1 <0>        0.00000
     31 H1          1.6834    1.5754    0.0000 H         1 <0>        0.00000
     32 H2          1.6834    1.5754    0.0000 H         1 <0>        0.00000
     33 H3          0.9689    1.1629    0.0000 H         1 <0>        0.00000
     34 H4          0.9689    1.1629    0.0000 H         1 <0>        0.00000
     35 H5          0.2545    1.5754    0.0000 H         1 <0>        0.00000
     36 H6          0.2545    2.4004    0.0000 H         1 <0>        0.00000
     37 H7          0.2545    2.4004    0.0000 H         1 <0>        0.00000
     38 H8          0.9689    2.8129    0.0000 H         1 <0>        0.00000
     39 H9          0.9689    2.8129    0.0000 H         1 <0>        0.00000
     40 H10        -0.4600    1.1629    0.0000 H         1 <0>        0.00000
     41 H11        -1.1745   -0.8996    0.0000 H         1 <0>        0.00000
     42 H12        -2.6034   -3.3746    0.0000 H         1 <0>        0.00000
     43 H13        -2.6034   -2.5496    0.0000 H         1 <0>        0.00000
     44 H14        -2.6034   -0.8996    0.0000 H         1 <0>        0.00000
     45 H15        -2.6034   -0.8996    0.0000 H         1 <0>        0.00000
     46 H16        -2.6034   -0.8996    0.0000 H         1 <0>        0.00000
     47 H17         0.9689   -1.3121    0.0000 H         1 <0>        0.00000
     48 H18         0.9689   -1.3121    0.0000 H         1 <0>        0.00000
     49 H19         3.1123    3.2254    0.0000 H         1 <0>        0.00000
     50 H20         3.1123    3.2254    0.0000 H         1 <0>        0.00000
     51 H21         3.1123    3.2254    0.0000 H         1 <0>        0.00000
@<TRIPOS>BOND
     1    1    2 1
     2    1    6 1
     3    1   27 1
     4    2    3 1
     5    3    4 1
     6    4    5 1
     7    4    7 1
     8    5    6 1
     9    7    8 1
    10    8    9 ar
    11    8   13 ar
    12    9   10 ar
    13   10   11 ar
    14   11   12 ar
    15   11   14 1
    16   12   13 ar
    17   12   26 1
    18   14   15 2
    19   14   16 1
    20   16   17 ar
    21   16   21 ar
    22   17   18 ar
    23   17   24 1
    24   18   19 ar
    25   18   25 1
    26   19   20 ar
    27   20   21 ar
    28   21   22 1
    29   22   23 1
    30   27   28 1
    31   27   29 2
    32   27   30 2
    33    2   31 1
    34    2   32 1
    35    3   33 1
    36    3   34 1
    37    4   35 1
    38    5   36 1
    39    5   37 1
    40    6   38 1
    41    6   39 1
    42    7   40 1
    43   10   41 1
    44   19   42 1
    45   20   43 1
    46   23   44 1
    47   23   45 1
    48   23   46 1
    49   26   47 1
    50   26   48 1
    51   28   49 1
    52   28   50 1
    53   28   51 1
@<TRIPOS>SUBSTRUCTURE
     1 <0>         1 GROUP 0 A     ****
@<TRIPOS>MOLECULE
*****
   60    65     1     0     0
SMALL
NO_CHARGES

@<TRIPOS>ATOM
      1 C1         -0.7145   -0.4125    0.0000 C.3       1 <0>        0.00000
      2 C2          0.0000    0.0000    0.0000 C.ar      1 <0>        0.00000
      3 C3          0.0000    0.8250    0.0000 C.ar      1 <0>        0.00000
      4 C4          0.7145    1.2375    0.0000 C.ar      1 <0>        0.00000
      5 C5          1.4289    0.8250    0.0000 C.ar      1 <0>        0.00000
      6 C6          2.2136    1.0799    0.0000 C.2       1 <0>        0.00000
      7 O1          2.4685    1.8646    0.0000 O.2       1 <0>        0.00000
      8 C7          2.6985    0.4125    0.0000 C.3       1 <0>        0.00000
      9 O2          3.1834    1.0799    0.0000 O.3       1 <0>        0.00000
     10 C8          3.9680    0.8250    0.0000 C.3       1 <0>        0.00000
     11 C9          3.9680    0.0000    0.0000 C.3       1 <0>        0.00000
     12 C10         3.1834   -0.2549    0.0000 C.3       1 <0>        0.00000
     13 C11         2.9285   -1.0396    0.0000 C.2       1 <0>        0.00000
     14 O3          2.1215   -1.2111    0.0000 O.3       1 <0>        0.00000
     15 O4          3.4805   -1.6527    0.0000 O.2       1 <0>        0.00000
     16 C12         4.6355   -0.4849    0.0000 C.2       1 <0>        0.00000
     17 O5          4.5492   -1.3054    0.0000 O.2       1 <0>        0.00000
     18 N1          5.3891   -0.1494    0.0000 N.am      1 <0>        0.00000
     19 C13         6.0566   -0.6343    0.0000 C.ar      1 <0>        0.00000
     20 C14         6.8103   -0.2987    0.0000 C.ar      1 <0>        0.00000
     21 C15         7.4777   -0.7837    0.0000 C.ar      1 <0>        0.00000
     22 C16         7.3915   -1.6041    0.0000 C.ar      1 <0>        0.00000
     23 C17         6.6378   -1.9397    0.0000 C.ar      1 <0>        0.00000
     24 C18         5.9703   -1.4548    0.0000 C.ar      1 <0>        0.00000
     25 C19         8.0589   -2.0891    0.0000 C.ar      1 <0>        0.00000
     26 C20         8.8435   -1.8341    0.0000 C.ar      1 <0>        0.00000
     27 S1          9.3284   -2.5016    0.0000 S.3       1 <0>        0.00000
     28 N2          8.8435   -3.1690    0.0000 N.ar      1 <0>        0.00000
     29 N3          8.0589   -2.9141    0.0000 N.ar      1 <0>        0.00000
     30 C21         4.6355    1.3099    0.0000 C.ar      1 <0>        0.00000
     31 C22         4.5492    2.1304    0.0000 C.ar      1 <0>        0.00000
     32 C23         5.2167    2.6153    0.0000 C.ar      1 <0>        0.00000
     33 C24         5.9703    2.2798    0.0000 C.ar      1 <0>        0.00000
     34 Cl1         6.6378    2.7647    0.0000 Cl        1 <0>        0.00000
     35 C25         6.0566    1.4593    0.0000 C.ar      1 <0>        0.00000
     36 Cl2         6.8103    1.1237    0.0000 Cl        1 <0>        0.00000
     37 C26         5.3891    0.9744    0.0000 C.ar      1 <0>        0.00000
     38 C27         2.2136   -0.2549    0.0000 C.2       1 <0>        0.00000
     39 O6          1.7286   -0.9224    0.0000 O.2       1 <0>        0.00000
     40 C28         1.4289    0.0000    0.0000 C.ar      1 <0>        0.00000
     41 C29         0.7145   -0.4125    0.0000 C.ar      1 <0>        0.00000
     42 H1         -0.7145   -0.4125    0.0000 H         1 <0>        0.00000
     43 H2         -0.7145   -0.4125    0.0000 H         1 <0>        0.00000
     44 H3         -0.7145   -0.4125    0.0000 H         1 <0>        0.00000
     45 H4          0.0000    0.8250    0.0000 H         1 <0>        0.00000
     46 H5          0.7145    1.2375    0.0000 H         1 <0>        0.00000
     47 H6          3.9680    0.8250    0.0000 H         1 <0>        0.00000
     48 H7          3.9680    0.0000    0.0000 H         1 <0>        0.00000
     49 H8          3.1834   -0.2549    0.0000 H         1 <0>        0.00000
     50 H9          2.1215   -1.2111    0.0000 H         1 <0>        0.00000
     51 H10         5.3891   -0.1494    0.0000 H         1 <0>        0.00000
     52 H11         6.8103   -0.2987    0.0000 H         1 <0>        0.00000
     53 H12         7.4777   -0.7837    0.0000 H         1 <0>        0.00000
     54 H13         6.6378   -1.9397    0.0000 H         1 <0>        0.00000
     55 H14         5.9703   -1.4548    0.0000 H         1 <0>        0.00000
     56 H15         8.8435   -1.8341    0.0000 H         1 <0>        0.00000
     57 H16         4.5492    2.1304    0.0000 H         1 <0>        0.00000
     58 H17         5.2167    2.6153    0.0000 H         1 <0>        0.00000
     59 H18         5.3891    0.9744    0.0000 H         1 <0>        0.00000
     60 H19         0.7145   -0.4125    0.0000 H         1 <0>        0.00000
@<TRIPOS>BOND
     1    1    2 1
     2    2    3 ar
     3    3    4 ar
     4    4    5 ar
     5    5    6 1
     6    6    7 2
     7    6    8 1
     8    8    9 1
     9    9   10 1
    10   10   11 1
    11   11   12 1
    12    8   12 1
    13   12   13 1
    14   13   14 1
    15   13   15 2
    16   11   16 1
    17   16   17 2
    18   16   18 am
    19   18   19 1
    20   19   20 ar
    21   20   21 ar
    22   21   22 ar
    23   22   23 ar
    24   23   24 ar
    25   19   24 ar
    26   22   25 1
    27   25   26 2
    28   26   27 1
    29   27   28 1
    30   28   29 2
    31   25   29 1
    32   10   30 1
    33   30   31 ar
    34   31   32 ar
    35   32   33 ar
    36   33   34 1
    37   33   35 ar
    38   35   36 1
    39   35   37 ar
    40   30   37 ar
    41    8   38 1
    42   38   39 2
    43   38   40 1
    44    5   40 ar
    45   40   41 ar
    46    2   41 ar
    47    1   42 1
    48    1   43 1
    49    1   44 1
    50    3   45 1
    51    4   46 1
    52   10   47 1
    53   11   48 1
    54   12   49 1
    55   14   50 1
    56   18   51 1
    57   20   52 1
    58   21   53 1
    59   23   54 1
    60   24   55 1
    61   26   56 1
    62   31   57 1
    63   32   58 1
    64   37   59 1
    65   41   60 1
@<TRIPOS>SUBSTRUCTURE
     1 <0>         1 GROUP 0 A     ****
@<TRIPOS>MOLECULE
UDT
   36    35     1     0     0
SMALL
NO_CHARGES

@<TRIPOS>ATOM
      1 C1         -2.7046    0.3064    0.0000 C.3       1 <0>        0.00000
      2 C2         -1.9901   -0.1061    0.0000 C.3       1 <0>        0.00000
      3 C3         -1.2756    0.3064    0.0000 C.3       1 <0>        0.00000
      4 C4         -0.5611   -0.1061    0.0000 C.3       1 <0>        0.00000
      5 C5          0.1533    0.3064    0.0000 C.3       1 <0>        0.00000
      6 C6          0.8678   -0.1061    0.0000 C.3       1 <0>        0.00000
      7 C7          1.5823    0.3064    0.0000 C.3       1 <0>        0.00000
      8 C8          2.2967   -0.1061    0.0000 C.3       1 <0>        0.00000
      9 C9          3.0112    0.3064    0.0000 C.3       1 <0>        0.00000
     10 C10         3.7257   -0.1061    0.0000 C.3       1 <0>        0.00000
     11 O1          4.4402    0.3064    0.0000 O.3       1 <0>        0.00000
     12 C11         5.1546   -0.1061    0.0000 C.2       1 <0>        0.00000
     13 O2          5.8691    0.3064    0.0000 O.2       1 <0>        0.00000
     14 S1          5.1546   -0.9311    0.0000 S.3       1 <0>        0.00000
     15 H1         -2.7046    0.3064    0.0000 H         1 <0>        0.00000
     16 H2         -2.7046    0.3064    0.0000 H         1 <0>        0.00000
     17 H3         -2.7046    0.3064    0.0000 H         1 <0>        0.00000
     18 H4         -1.9901   -0.1061    0.0000 H         1 <0>        0.00000
     19 H5         -1.9901   -0.1061    0.0000 H         1 <0>        0.00000
     20 H6         -1.2756    0.3064    0.0000 H         1 <0>        0.00000
     21 H7         -1.2756    0.3064    0.0000 H         1 <0>        0.00000
     22 H8         -0.5611   -0.1061    0.0000 H         1 <0>        0.00000
     23 H9         -0.5611   -0.1061    0.0000 H         1 <0>        0.00000
     24 H10         0.1533    0.3064    0.0000 H         1 <0>        0.00000
     25 H11         0.1533    0.3064    0.0000 H         1 <0>        0.00000
     26 H12         0.8678   -0.1061    0.0000 H         1 <0>        0.00000
     27 H13         0.8678   -0.1061    0.0000 H         1 <0>        0.00000
     28 H14         1.5823    0.3064    0.0000 H         1 <0>        0.00000
     29 H15         1.5823    0.3064    0.0000 H         1 <0>        0.00000
     30 H16         2.2967   -0.1061    0.0000 H         1 <0>        0.00000
     31 H17         2.2967   -0.1061    0.0000 H         1 <0>        0.00000
     32 H18         3.0112    0.3064    0.0000 H         1 <0>        0.00000
     33 H19         3.0112    0.3064    0.0000 H         1 <0>        0.00000
     34 H20         3.7257   -0.1061    0.0000 H         1 <0>        0.00000
     35 H21         3.7257   -0.1061    0.0000 H         1 <0>        0.00000
     36 H22         5.1546   -0.9311    0.0000 H         1 <0>        0.00000
@<TRIPOS>BOND
     1    1    2 1
     2    2    3 1
     3    3    4 1
     4    4    5 1
     5    5    6 1
     6    6    7 1
     7    7    8 1
     8    8    9 1
     9    9   10 1
    10   10   11 1
    11   11   12 1
    12   12   14 1
    13   12   13 2
    14    1   15 1
    15    1   16 1
    16    1   17 1
    17    2   18 1
    18    2   19 1
    19    3   20 1
    20    3   21 1
    21    4   22 1
    22    4   23 1
    23    5   24 1
    24    5   25 1
    25    6   26 1
    26    6   27 1
    27    7   28 1
    28    7   29 1
    29    8   30 1
    30    8   31 1
    31    9   32 1
    32    9   33 1
    33   10   34 1
    34   10   35 1
    35   14   36 1
@<TRIPOS>SUBSTRUCTURE
     1 <0>         1 GROUP 0 A     ****
@<TRIPOS>MOLECULE
698
   62    64     1     0     0
SMALL
NO_CHARGES

@<TRIPOS>ATOM
      1 O1         -0.2788    2.5553    0.0000 O.2       1 <0>        0.00000
      2 C1         -0.9933    2.1428    0.0000 C.2       1 <0>        0.00000
      3 O2         -1.7077    2.5553    0.0000 O.3       1 <0>        0.00000
      4 C2         -0.9933    1.3178    0.0000 C.3       1 <0>        0.00000
      5 C3         -1.6607    0.8329    0.0000 C.3       1 <0>        0.00000
      6 C4         -2.4453    1.0878    0.0000 C.ar      1 <0>        0.00000
      7 N1         -2.7003    1.8724    0.0000 N.ar      1 <0>        0.00000
      8 C5         -3.5253    1.8724    0.0000 C.ar      1 <0>        0.00000
      9 C6         -3.7802    1.0878    0.0000 C.ar      1 <0>        0.00000
     10 S1         -3.1128    0.6029    0.0000 S.3       1 <0>        0.00000
     11 C7         -0.3258    0.8329    0.0000 C.3       1 <0>        0.00000
     12 C8         -0.5808    0.0483    0.0000 C.3       1 <0>        0.00000
     13 C9         -0.6670   -0.7722    0.0000 C.3       1 <0>        0.00000
     14 C10         0.0004   -1.2571    0.0000 C.3       1 <0>        0.00000
     15 C11        -0.0858   -2.0776    0.0000 C.3       1 <0>        0.00000
     16 C12         0.7541   -0.9216    0.0000 C.3       1 <0>        0.00000
     17 C13         0.2262   -0.1233    0.0000 C.2       1 <0>        0.00000
     18 O3          0.8936   -0.6082    0.0000 O.2       1 <0>        0.00000
     19 O4          0.7782    0.4898    0.0000 O.3       1 <0>        0.00000
     20 N2         -1.4058    0.0483    0.0000 N.am      1 <0>        0.00000
     21 C14        -1.8907   -0.6192    0.0000 C.2       1 <0>        0.00000
     22 O5         -1.5551   -1.3728    0.0000 O.2       1 <0>        0.00000
     23 C15        -2.7112   -0.5329    0.0000 C.ar      1 <0>        0.00000
     24 C16        -3.0467    0.2207    0.0000 C.ar      1 <0>        0.00000
     25 C17        -3.8672    0.3070    0.0000 C.ar      1 <0>        0.00000
     26 C18        -3.1961   -1.2004    0.0000 C.ar      1 <0>        0.00000
     27 C19        -4.0166   -1.1141    0.0000 C.ar      1 <0>        0.00000
     28 C20        -4.3521   -0.3605    0.0000 C.ar      1 <0>        0.00000
     29 C21        -5.1726   -0.2742    0.0000 C.3       1 <0>        0.00000
     30 C22        -5.9931   -0.1880    0.0000 C.3       1 <0>        0.00000
     31 C23        -5.0864    0.5462    0.0000 C.3       1 <0>        0.00000
     32 C24        -5.2588   -1.0947    0.0000 C.3       1 <0>        0.00000
     33 H1         -1.5135    1.5829    0.0000 H         1 <0>        0.00000
     34 H2         -1.7520    1.4096    0.0000 H         1 <0>        0.00000
     35 H3         -1.7077    2.5553    0.0000 H         1 <0>        0.00000
     36 H4         -3.5253    1.8724    0.0000 H         1 <0>        0.00000
     37 H5         -3.7802    1.0878    0.0000 H         1 <0>        0.00000
     38 H6         -0.3258    0.8329    0.0000 H         1 <0>        0.00000
     39 H7         -0.3258    0.8329    0.0000 H         1 <0>        0.00000
     40 H8         -0.6670   -0.7722    0.0000 H         1 <0>        0.00000
     41 H9         -0.6670   -0.7722    0.0000 H         1 <0>        0.00000
     42 H10         0.0004   -1.2571    0.0000 H         1 <0>        0.00000
     43 H11        -0.0858   -2.0776    0.0000 H         1 <0>        0.00000
     44 H12        -0.0858   -2.0776    0.0000 H         1 <0>        0.00000
     45 H13        -0.0858   -2.0776    0.0000 H         1 <0>        0.00000
     46 H14         0.7541   -0.9216    0.0000 H         1 <0>        0.00000
     47 H15         0.7541   -0.9216    0.0000 H         1 <0>        0.00000
     48 H16         0.7541   -0.9216    0.0000 H         1 <0>        0.00000
     49 H17         0.7782    0.4898    0.0000 H         1 <0>        0.00000
     50 H18        -3.0467    0.2207    0.0000 H         1 <0>        0.00000
     51 H19        -3.8672    0.3070    0.0000 H         1 <0>        0.00000
     52 H20        -3.1961   -1.2004    0.0000 H         1 <0>        0.00000
     53 H21        -4.0166   -1.1141    0.0000 H         1 <0>        0.00000
     54 H22        -5.9931   -0.1880    0.0000 H         1 <0>        0.00000
     55 H23        -5.9931   -0.1880    0.0000 H         1 <0>        0.00000
     56 H24        -5.9931   -0.1880    0.0000 H         1 <0>        0.00000
     57 H25        -5.0864    0.5462    0.0000 H         1 <0>        0.00000
     58 H26        -5.0864    0.5462    0.0000 H         1 <0>        0.00000
     59 H27        -5.0864    0.5462    0.0000 H         1 <0>        0.00000
     60 H28        -5.2588   -1.0947    0.0000 H         1 <0>        0.00000
     61 H29        -5.2588   -1.0947    0.0000 H         1 <0>        0.00000
     62 H30        -5.2588   -1.0947    0.0000 H         1 <0>        0.00000
@<TRIPOS>BOND
     1    1    2 2
     2    2    3 1
     3    2    4 1
     4    4   33 1
     5    4    5 1
     6    4   11 1
     7    5   34 1
     8    5    6 1
     9    5   20 1
    10    6    7 2
    11    6   10 1
    12    7    8 1
    13    8    9 2
    14    9   10 1
    15   11   12 1
    16   12   13 1
    17   12   17 1
    18   12   20 1
    19   13   14 1
    20   14   15 1
    21   14   16 1
    22   17   18 2
    23   17   19 1
    24   20   21 am
    25   21   22 2
    26   21   23 1
    27   23   26 ar
    28   23   24 ar
    29   24   25 ar
    30   25   28 ar
    31   26   27 ar
    32   27   28 ar
    33   28   29 1
    34   29   30 1
    35   29   31 1
    36   29   32 1
    37    3   35 1
    38    8   36 1
    39    9   37 1
    40   11   38 1
    41   11   39 1
    42   13   40 1
    43   13   41 1
    44   14   42 1
    45   15   43 1
    46   15   44 1
    47   15   45 1
    48   16   46 1
    49   16   47 1
    50   16   48 1
    51   19   49 1
    52   24   50 1
    53   25   51 1
    54   26   52 1
    55   27   53 1
    56   30   54 1
    57   30   55 1
    58   30   56 1
    59   31   57 1
    60   31   58 1
    61   31   59 1
    62   32   60 1
    63   32   61 1
    64   32   62 1
@<TRIPOS>SUBSTRUCTURE
     1 <0>         1 GROUP 0 A     ****
@<TRIPOS>MOLECULE
823
   60    63     1     0     0
SMALL
NO_CHARGES

@<TRIPOS>ATOM
      1 O1          8.9774    0.8591    0.0000 O.3       1 <0>        0.00000
      2 O2          3.0790   -2.3944    0.0000 O.3       1 <0>        0.00000
      3 O3          9.8152   -0.2985    0.0000 O.2       1 <0>        0.00000
      4 O4          2.3693   -1.1541    0.0000 O.2       1 <0>        0.00000
      5 C1          7.5284    0.1238    0.0000 C.3       1 <0>        0.00000
      6 C2          7.5284   -0.7012    0.0000 C.3       1 <0>        0.00000
      7 C3          6.8139   -1.1137    0.0000 C.3       1 <0>        0.00000
      8 C4          6.0994   -0.7012    0.0000 C.3       1 <0>        0.00000
      9 C5          8.3090    0.3753    0.0000 C.3       1 <0>        0.00000
     10 C6          6.8139    0.5363    0.0000 C.3       1 <0>        0.00000
     11 C7          8.3090   -0.9526    0.0000 C.3       1 <0>        0.00000
     12 C8          6.0994    0.1238    0.0000 C.3       1 <0>        0.00000
     13 C9          5.3487   -1.1193    0.0000 C.3       1 <0>        0.00000
     14 C10         8.7906   -0.2887    0.0000 C.3       1 <0>        0.00000
     15 C11         6.8272   -1.9729    0.0000 C.3       1 <0>        0.00000
     16 C12         7.5284    0.9489    0.0000 C.3       1 <0>        0.00000
     17 C13         5.3420   -1.9786    0.0000 C.2       1 <0>        0.00000
     18 C14         6.0862   -2.4083    0.0000 C.3       1 <0>        0.00000
     19 C15         4.5840   -0.6539    0.0000 C.3       1 <0>        0.00000
     20 C16         3.8019   -1.0895    0.0000 C.3       1 <0>        0.00000
     21 C17         8.0555    1.1604    0.0000 C.1       1 <0>        0.00000
     22 C18         4.5703   -2.4322    0.0000 C.2       1 <0>        0.00000
     23 C19         3.7951   -1.9846    0.0000 C.3       1 <0>        0.00000
     24 C20         9.7304    0.5222    0.0000 C.2       1 <0>        0.00000
     25 C21         7.8019    1.9454    0.0000 C.1       1 <0>        0.00000
     26 C22        10.3987    1.0059    0.0000 C.3       1 <0>        0.00000
     27 C23         2.3661   -1.9791    0.0000 C.2       1 <0>        0.00000
     28 C24         1.6500   -2.3888    0.0000 C.3       1 <0>        0.00000
     29 H1          7.5983   -1.3575    0.0000 H         1 <0>        0.00000
     30 H2          7.3880   -1.4392    0.0000 H         1 <0>        0.00000
     31 H3          6.6710   -0.3712    0.0000 H         1 <0>        0.00000
     32 H4          5.3614   -0.4595    0.0000 H         1 <0>        0.00000
     33 H5          6.8139    0.5363    0.0000 H         1 <0>        0.00000
     34 H6          6.8139    0.5363    0.0000 H         1 <0>        0.00000
     35 H7          8.3090   -0.9526    0.0000 H         1 <0>        0.00000
     36 H8          8.3090   -0.9526    0.0000 H         1 <0>        0.00000
     37 H9          6.0994    0.1238    0.0000 H         1 <0>        0.00000
     38 H10         6.0994    0.1238    0.0000 H         1 <0>        0.00000
     39 H11         8.7906   -0.2887    0.0000 H         1 <0>        0.00000
     40 H12         8.7906   -0.2887    0.0000 H         1 <0>        0.00000
     41 H13         6.8272   -1.9729    0.0000 H         1 <0>        0.00000
     42 H14         6.8272   -1.9729    0.0000 H         1 <0>        0.00000
     43 H15         7.5284    0.9489    0.0000 H         1 <0>        0.00000
     44 H16         7.5284    0.9489    0.0000 H         1 <0>        0.00000
     45 H17         7.5284    0.9489    0.0000 H         1 <0>        0.00000
     46 H18         6.0862   -2.4083    0.0000 H         1 <0>        0.00000
     47 H19         6.0862   -2.4083    0.0000 H         1 <0>        0.00000
     48 H20         4.5840   -0.6539    0.0000 H         1 <0>        0.00000
     49 H21         4.5840   -0.6539    0.0000 H         1 <0>        0.00000
     50 H22         3.8019   -1.0895    0.0000 H         1 <0>        0.00000
     51 H23         3.8019   -1.0895    0.0000 H         1 <0>        0.00000
     52 H24         4.5703   -2.4322    0.0000 H         1 <0>        0.00000
     53 H25         3.7951   -1.9846    0.0000 H         1 <0>        0.00000
     54 H26         7.8019    1.9454    0.0000 H         1 <0>        0.00000
     55 H27        10.3987    1.0059    0.0000 H         1 <0>        0.00000
     56 H28        10.3987    1.0059    0.0000 H         1 <0>        0.00000
     57 H29        10.3987    1.0059    0.0000 H         1 <0>        0.00000
     58 H30         1.6500   -2.3888    0.0000 H         1 <0>        0.00000
     59 H31         1.6500   -2.3888    0.0000 H         1 <0>        0.00000
     60 H32         1.6500   -2.3888    0.0000 H         1 <0>        0.00000
@<TRIPOS>BOND
     1    1    9 1
     2    1   24 1
     3    2   23 1
     4    2   27 1
     5    3   24 2
     6    4   27 2
     7    5    6 1
     8    5    9 1
     9    5   10 1
    10    5   16 1
    11    6    7 1
    12    6   11 1
    13    6   29 1
    14    7    8 1
    15    7   15 1
    16    7   30 1
    17    8   12 1
    18    8   13 1
    19    8   31 1
    20    9   14 1
    21    9   21 1
    22   10   12 1
    23   11   14 1
    24   13   17 1
    25   13   19 1
    26   13   32 1
    27   15   18 1
    28   17   18 1
    29   17   22 2
    30   19   20 1
    31   20   23 1
    32   21   25 3
    33   22   23 1
    34   24   26 1
    35   27   28 1
    36   10   33 1
    37   10   34 1
    38   11   35 1
    39   11   36 1
    40   12   37 1
    41   12   38 1
    42   14   39 1
    43   14   40 1
    44   15   41 1
    45   15   42 1
    46   16   43 1
    47   16   44 1
    48   16   45 1
    49   18   46 1
    50   18   47 1
    51   19   48 1
    52   19   49 1
    53   20   50 1
    54   20   51 1
    55   22   52 1
    56   23   53 1
    57   25   54 1
    58   26   55 1
    59   26   56 1
    60   26   57 1
    61   28   58 1
    62   28   59 1
    63   28   60 1
@<TRIPOS>SUBSTRUCTURE
     1 <0>         1 GROUP 0 A     ****
@<TRIPOS>MOLECULE
TOX
   30    31     1     0     0
SMALL
NO_CHARGES

@<TRIPOS>ATOM
      1 N1         -1.6942   -0.4694    0.0000 N.3       1 <0>        0.00000
      2 C1         -2.5012   -0.6410    0.0000 C.3       1 <0>        0.00000
      3 C2         -3.0532   -0.0279    0.0000 C.3       1 <0>        0.00000
      4 C3         -2.7983    0.7568    0.0000 C.ar      1 <0>        0.00000
      5 C4         -3.2832    1.4242    0.0000 C.ar      1 <0>        0.00000
      6 N2         -2.7983    2.0916    0.0000 N.pl3     1 <0>        0.00000
      7 C5         -2.0137    1.8367    0.0000 C.ar      1 <0>        0.00000
      8 C6         -2.0137    1.0117    0.0000 C.ar      1 <0>        0.00000
      9 C7         -1.2992    0.5992    0.0000 C.ar      1 <0>        0.00000
     10 C8         -0.5847    1.0117    0.0000 C.ar      1 <0>        0.00000
     11 C9         -0.5847    1.8367    0.0000 C.ar      1 <0>        0.00000
     12 C10        -1.2992    2.2492    0.0000 C.ar      1 <0>        0.00000
     13 C11        -2.7561   -1.4256    0.0000 C.3       1 <0>        0.00000
     14 O1         -2.2041   -2.0387    0.0000 O.3       1 <0>        0.00000
     15 O2         -2.5012    3.4893    0.0000 O.3       1 <0>        0.00000
     16 O3         -3.0532    2.8763    0.0000 O.3       1 <0>        0.00000
     17 H1         -2.1105   -1.0749    0.0000 H         1 <0>        0.00000
     18 H2         -1.6942   -0.4694    0.0000 H         1 <0>        0.00000
     19 H3         -1.6942   -0.4694    0.0000 H         1 <0>        0.00000
     20 H4         -3.0532   -0.0279    0.0000 H         1 <0>        0.00000
     21 H5         -3.0532   -0.0279    0.0000 H         1 <0>        0.00000
     22 H6         -3.2832    1.4242    0.0000 H         1 <0>        0.00000
     23 H7         -1.2992    0.5992    0.0000 H         1 <0>        0.00000
     24 H8         -0.5847    1.0117    0.0000 H         1 <0>        0.00000
     25 H9         -0.5847    1.8367    0.0000 H         1 <0>        0.00000
     26 H10        -1.2992    2.2492    0.0000 H         1 <0>        0.00000
     27 H11        -2.7561   -1.4256    0.0000 H         1 <0>        0.00000
     28 H12        -2.7561   -1.4256    0.0000 H         1 <0>        0.00000
     29 H13        -2.2041   -2.0387    0.0000 H         1 <0>        0.00000
     30 H14        -2.5012    3.4893    0.0000 H         1 <0>        0.00000
@<TRIPOS>BOND
     1    1    2 1
     2    2   13 1
     3    2    3 1
     4    2   17 1
     5    3    4 1
     6    4    5 2
     7    4    8 1
     8    5    6 1
     9    6   16 1
    10    6    7 1
    11    7   12 ar
    12    7    8 ar
    13    8    9 ar
    14    9   10 ar
    15   10   11 ar
    16   11   12 ar
    17   13   14 1
    18   15   16 1
    19    1   18 1
    20    1   19 1
    21    3   20 1
    22    3   21 1
    23    5   22 1
    24    9   23 1
    25   10   24 1
    26   11   25 1
    27   12   26 1
    28   13   27 1
    29   13   28 1
    30   14   29 1
    31   15   30 1
@<TRIPOS>SUBSTRUCTURE
     1 <0>         1 GROUP 0 A     ****
@<TRIPOS>MOLECULE
740
   59    63     1     0     0
SMALL
NO_CHARGES

@<TRIPOS>ATOM
      1 C1         -3.1901   -1.0934    0.0000 C.ar      1 <0>        0.00000
      2 C2         -2.6381   -1.7065    0.0000 C.ar      1 <0>        0.00000
      3 C3         -1.8311   -1.5350    0.0000 C.ar      1 <0>        0.00000
      4 C4         -1.5762   -0.7504    0.0000 C.ar      1 <0>        0.00000
      5 C5         -2.1282   -0.1373    0.0000 C.ar      1 <0>        0.00000
      6 C6         -2.9352   -0.3088    0.0000 C.ar      1 <0>        0.00000
      7 C7         -0.7692   -0.5789    0.0000 C.3       1 <0>        0.00000
      8 C8         -0.5143    0.2058    0.0000 C.2       1 <0>        0.00000
      9 N1          0.2927    0.3773    0.0000 N.am      1 <0>        0.00000
     10 C9          0.5476    1.1619    0.0000 C.ar      1 <0>        0.00000
     11 N2          0.0627    1.8293    0.0000 N.ar      1 <0>        0.00000
     12 N3          0.5476    2.4968    0.0000 N.pl3     1 <0>        0.00000
     13 C10         1.3323    2.2418    0.0000 C.ar      1 <0>        0.00000
     14 C11         2.0467    2.6543    0.0000 C.ar      1 <0>        0.00000
     15 C12         2.7612    2.2418    0.0000 C.ar      1 <0>        0.00000
     16 C13         2.7612    1.4168    0.0000 C.ar      1 <0>        0.00000
     17 C14         2.0467    1.0043    0.0000 C.ar      1 <0>        0.00000
     18 C15         1.3323    1.4168    0.0000 C.ar      1 <0>        0.00000
     19 N4          3.4757    1.0043    0.0000 N.pl3     1 <0>        0.00000
     20 C16         4.2293    1.3399    0.0000 C.3       1 <0>        0.00000
     21 O1         -1.0663    0.8189    0.0000 O.2       1 <0>        0.00000
     22 C17         4.7814    0.7268    0.0000 C.3       1 <0>        0.00000
     23 S1          3.5619    0.1839    0.0000 S.o2      1 <0>        0.00000
     24 C18         4.3689    0.0123    0.0000 C.3       1 <0>        0.00000
     25 O2          2.7568    0.0039    0.0000 O.2       1 <0>        0.00000
     26 O3          3.2988   -0.5980    0.0000 O.2       1 <0>        0.00000
     27 C19        -4.2520   -2.0496    0.0000 C.3       1 <0>        0.00000
     28 N5         -3.9971   -1.2650    0.0000 N.pl3     1 <0>        0.00000
     29 C20        -4.5491   -0.6519    0.0000 C.3       1 <0>        0.00000
     30 C21        -5.3561   -0.8234    0.0000 C.3       1 <0>        0.00000
     31 C22        -5.6110   -1.6080    0.0000 C.3       1 <0>        0.00000
     32 C23        -5.0590   -2.2211    0.0000 C.3       1 <0>        0.00000
     33 H1         -2.6381   -1.7065    0.0000 H         1 <0>        0.00000
     34 H2         -1.8311   -1.5350    0.0000 H         1 <0>        0.00000
     35 H3         -2.1282   -0.1373    0.0000 H         1 <0>        0.00000
     36 H4         -2.9352   -0.3088    0.0000 H         1 <0>        0.00000
     37 H5         -0.7692   -0.5789    0.0000 H         1 <0>        0.00000
     38 H6         -0.7692   -0.5789    0.0000 H         1 <0>        0.00000
     39 H7          0.2927    0.3773    0.0000 H         1 <0>        0.00000
     40 H8          0.5476    2.4968    0.0000 H         1 <0>        0.00000
     41 H9          2.0467    2.6543    0.0000 H         1 <0>        0.00000
     42 H10         2.7612    2.2418    0.0000 H         1 <0>        0.00000
     43 H11         2.0467    1.0043    0.0000 H         1 <0>        0.00000
     44 H12         4.2293    1.3399    0.0000 H         1 <0>        0.00000
     45 H13         4.2293    1.3399    0.0000 H         1 <0>        0.00000
     46 H14         4.7814    0.7268    0.0000 H         1 <0>        0.00000
     47 H15         4.7814    0.7268    0.0000 H         1 <0>        0.00000
     48 H16         4.3689    0.0123    0.0000 H         1 <0>        0.00000
     49 H17         4.3689    0.0123    0.0000 H         1 <0>        0.00000
     50 H18        -4.2520   -2.0496    0.0000 H         1 <0>        0.00000
     51 H19        -4.2520   -2.0496    0.0000 H         1 <0>        0.00000
     52 H20        -4.5491   -0.6519    0.0000 H         1 <0>        0.00000
     53 H21        -4.5491   -0.6519    0.0000 H         1 <0>        0.00000
     54 H22        -5.3561   -0.8234    0.0000 H         1 <0>        0.00000
     55 H23        -5.3561   -0.8234    0.0000 H         1 <0>        0.00000
     56 H24        -5.6110   -1.6080    0.0000 H         1 <0>        0.00000
     57 H25        -5.6110   -1.6080    0.0000 H         1 <0>        0.00000
     58 H26        -5.0590   -2.2211    0.0000 H         1 <0>        0.00000
     59 H27        -5.0590   -2.2211    0.0000 H         1 <0>        0.00000
@<TRIPOS>BOND
     1    1    6 ar
     2    1    2 ar
     3    1   28 1
     4    2    3 ar
     5    3    4 ar
     6    4    7 1
     7    4    5 ar
     8    5    6 ar
     9    7    8 1
    10    8   21 2
    11    8    9 am
    12    9   10 1
    13   10   11 2
    14   10   18 1
    15   11   12 1
    16   12   13 1
    17   13   14 ar
    18   13   18 ar
    19   14   15 ar
    20   15   16 ar
    21   16   17 ar
    22   16   19 1
    23   17   18 ar
    24   19   20 1
    25   19   23 1
    26   20   22 1
    27   22   24 1
    28   23   24 1
    29   23   25 2
    30   23   26 2
    31   27   32 1
    32   27   28 1
    33   28   29 1
    34   29   30 1
    35   30   31 1
    36   31   32 1
    37    2   33 1
    38    3   34 1
    39    5   35 1
    40    6   36 1
    41    7   37 1
    42    7   38 1
    43    9   39 1
    44   12   40 1
    45   14   41 1
    46   15   42 1
    47   17   43 1
    48   20   44 1
    49   20   45 1
    50   22   46 1
    51   22   47 1
    52   24   48 1
    53   24   49 1
    54   27   50 1
    55   27   51 1
    56   29   52 1
    57   29   53 1
    58   30   54 1
    59   30   55 1
    60   31   56 1
    61   31   57 1
    62   32   58 1
    63   32   59 1
@<TRIPOS>SUBSTRUCTURE
     1 <0>         1 GROUP 0 A     ****
@<TRIPOS>MOLECULE
WAC
   57    60     1     0     0
SMALL
NO_CHARGES

@<TRIPOS>ATOM
      1 C1         -2.5396   -2.2721    0.0000 C.ar      1 <0>        0.00000
      2 C2         -1.8118   -1.8835    0.0000 C.ar      1 <0>        0.00000
      3 C3         -1.7845   -1.0589    0.0000 C.ar      1 <0>        0.00000
      4 C4         -2.4849   -0.6230    0.0000 C.ar      1 <0>        0.00000
      5 C5         -3.2127   -1.0116    0.0000 C.ar      1 <0>        0.00000
      6 C6         -3.2400   -1.8362    0.0000 C.ar      1 <0>        0.00000
      7 N1         -1.1535   -0.5275    0.0000 N.pl3     1 <0>        0.00000
      8 C7         -1.4639    0.2369    0.0000 C.ar      1 <0>        0.00000
      9 C8         -2.2868    0.1778    0.0000 C.ar      1 <0>        0.00000
     10 C9         -1.1036    0.9790    0.0000 C.3       1 <0>        0.00000
     11 N2         -1.5661    1.6621    0.0000 N.3       1 <0>        0.00000
     12 C10        -2.3890    1.6031    0.0000 C.3       1 <0>        0.00000
     13 C11        -2.7493    0.8610    0.0000 C.2       1 <0>        0.00000
     14 C12        -0.2807    1.0380    0.0000 C.3       1 <0>        0.00000
     15 C13         0.0797    1.7802    0.0000 C.3       1 <0>        0.00000
     16 C14        -0.3829    2.4633    0.0000 C.3       1 <0>        0.00000
     17 C15        -1.2058    2.4043    0.0000 C.3       1 <0>        0.00000
     18 C16        -0.3526   -0.7257    0.0000 C.3       1 <0>        0.00000
     19 C17         0.2194   -0.1312    0.0000 C.3       1 <0>        0.00000
     20 C18         1.0203   -0.3294    0.0000 C.3       1 <0>        0.00000
     21 N3          1.5923    0.2651    0.0000 N.pl3     1 <0>        0.00000
     22 S1          2.3931    0.0670    0.0000 S.o2      1 <0>        0.00000
     23 C19         3.1940   -0.1312    0.0000 C.3       1 <0>        0.00000
     24 C20         3.7660    0.4633    0.0000 C.3       1 <0>        0.00000
     25 C21         3.4228   -0.9238    0.0000 C.3       1 <0>        0.00000
     26 O1          2.1950   -0.7339    0.0000 O.2       1 <0>        0.00000
     27 O2          2.5913    0.8678    0.0000 O.2       1 <0>        0.00000
     28 O3         -3.5722    0.8020    0.0000 O.2       1 <0>        0.00000
     29 H1         -0.7762    0.4955    0.0000 H         1 <0>        0.00000
     30 H2         -2.5396   -2.2721    0.0000 H         1 <0>        0.00000
     31 H3         -1.8118   -1.8835    0.0000 H         1 <0>        0.00000
     32 H4         -3.2127   -1.0116    0.0000 H         1 <0>        0.00000
     33 H5         -3.2400   -1.8362    0.0000 H         1 <0>        0.00000
     34 H6         -2.3890    1.6031    0.0000 H         1 <0>        0.00000
     35 H7         -2.3890    1.6031    0.0000 H         1 <0>        0.00000
     36 H8         -0.2807    1.0380    0.0000 H         1 <0>        0.00000
     37 H9         -0.2807    1.0380    0.0000 H         1 <0>        0.00000
     38 H10         0.0797    1.7802    0.0000 H         1 <0>        0.00000
     39 H11         0.0797    1.7802    0.0000 H         1 <0>        0.00000
     40 H12        -0.3829    2.4633    0.0000 H         1 <0>        0.00000
     41 H13        -0.3829    2.4633    0.0000 H         1 <0>        0.00000
     42 H14        -1.2058    2.4043    0.0000 H         1 <0>        0.00000
     43 H15        -1.2058    2.4043    0.0000 H         1 <0>        0.00000
     44 H16        -0.3526   -0.7257    0.0000 H         1 <0>        0.00000
     45 H17        -0.3526   -0.7257    0.0000 H         1 <0>        0.00000
     46 H18         0.2194   -0.1312    0.0000 H         1 <0>        0.00000
     47 H19         0.2194   -0.1312    0.0000 H         1 <0>        0.00000
     48 H20         1.0203   -0.3294    0.0000 H         1 <0>        0.00000
     49 H21         1.0203   -0.3294    0.0000 H         1 <0>        0.00000
     50 H22         1.5923    0.2651    0.0000 H         1 <0>        0.00000
     51 H23         3.1940   -0.1312    0.0000 H         1 <0>        0.00000
     52 H24         3.7660    0.4633    0.0000 H         1 <0>        0.00000
     53 H25         3.7660    0.4633    0.0000 H         1 <0>        0.00000
     54 H26         3.7660    0.4633    0.0000 H         1 <0>        0.00000
     55 H27         3.4228   -0.9238    0.0000 H         1 <0>        0.00000
     56 H28         3.4228   -0.9238    0.0000 H         1 <0>        0.00000
     57 H29         3.4228   -0.9238    0.0000 H         1 <0>        0.00000
@<TRIPOS>BOND
     1    1    2 ar
     2    1    6 ar
     3    2    3 ar
     4    3    4 ar
     5    3    7 1
     6    4    5 ar
     7    4    9 1
     8    5    6 ar
     9    7    8 1
    10    7   18 1
    11    8    9 2
    12    8   10 1
    13    9   13 1
    14   10   11 1
    15   10   14 1
    16   10   29 1
    17   11   12 1
    18   11   17 1
    19   12   13 1
    20   13   28 2
    21   14   15 1
    22   15   16 1
    23   16   17 1
    24   18   19 1
    25   19   20 1
    26   20   21 1
    27   21   22 1
    28   22   23 1
    29   22   26 2
    30   22   27 2
    31   23   24 1
    32   23   25 1
    33    1   30 1
    34    2   31 1
    35    5   32 1
    36    6   33 1
    37   12   34 1
    38   12   35 1
    39   14   36 1
    40   14   37 1
    41   15   38 1
    42   15   39 1
    43   16   40 1
    44   16   41 1
    45   17   42 1
    46   17   43 1
    47   18   44 1
    48   18   45 1
    49   19   46 1
    50   19   47 1
    51   20   48 1
    52   20   49 1
    53   21   50 1
    54   23   51 1
    55   24   52 1
    56   24   53 1
    57   24   54 1
    58   25   55 1
    59   25   56 1
    60   25   57 1
@<TRIPOS>SUBSTRUCTURE
     1 <0>         1 GROUP 0 A     ****
@<TRIPOS>MOLECULE
*****
   38    39     1     0     0
SMALL
NO_CHARGES

@<TRIPOS>ATOM
      1 C1          1.3222    7.2402    0.0000 C.3       1 <0>        0.00000
      2 C2          2.0367    6.8277    0.0000 C.ar      1 <0>        0.00000
      3 N1          2.7512    7.2402    0.0000 N.ar      1 <0>        0.00000
      4 C3          3.4656    6.8277    0.0000 C.ar      1 <0>        0.00000
      5 C4          3.4656    6.0027    0.0000 C.ar      1 <0>        0.00000
      6 C5          4.1801    5.5902    0.0000 C.3       1 <0>        0.00000
      7 O1          4.8946    6.0027    0.0000 O.3       1 <0>        0.00000
      8 P1          5.6091    5.5902    0.0000 P.3       1 <0>        0.00000
      9 O2          6.3235    5.1777    0.0000 O.3       1 <0>        0.00000
     10 O3          6.0216    6.3047    0.0000 O.3       1 <0>        0.00000
     11 O4          5.1966    4.8757    0.0000 O.2       1 <0>        0.00000
     12 C6          2.7512    5.5902    0.0000 C.ar      1 <0>        0.00000
     13 C7          2.7512    4.7652    0.0000 C.3       1 <0>        0.00000
     14 N2          3.4656    4.3527    0.0000 N.3       1 <0>        0.00000
     15 C8          3.4656    3.5277    0.0000 C.3       1 <0>        0.00000
     16 C9          4.1331    3.0428    0.0000 C.3       1 <0>        0.00000
     17 O5          3.8781    2.2581    0.0000 O.3       1 <0>        0.00000
     18 N3          3.0531    2.2581    0.0000 N.am      1 <0>        0.00000
     19 C10         2.7982    3.0428    0.0000 C.2       1 <0>        0.00000
     20 O6          2.0136    3.2977    0.0000 O.2       1 <0>        0.00000
     21 C11         2.0367    6.0027    0.0000 C.ar      1 <0>        0.00000
     22 O7          1.3222    5.5902    0.0000 O.3       1 <0>        0.00000
     23 H1          1.3222    7.2402    0.0000 H         1 <0>        0.00000
     24 H2          1.3222    7.2402    0.0000 H         1 <0>        0.00000
     25 H3          1.3222    7.2402    0.0000 H         1 <0>        0.00000
     26 H4          3.4656    6.8277    0.0000 H         1 <0>        0.00000
     27 H5          4.1801    5.5902    0.0000 H         1 <0>        0.00000
     28 H6          4.1801    5.5902    0.0000 H         1 <0>        0.00000
     29 H7          6.3235    5.1777    0.0000 H         1 <0>        0.00000
     30 H8          6.0216    6.3047    0.0000 H         1 <0>        0.00000
     31 H9          2.7512    4.7652    0.0000 H         1 <0>        0.00000
     32 H10         2.7512    4.7652    0.0000 H         1 <0>        0.00000
     33 H11         3.4656    4.3527    0.0000 H         1 <0>        0.00000
     34 H12         3.4656    3.5277    0.0000 H         1 <0>        0.00000
     35 H13         4.1331    3.0428    0.0000 H         1 <0>        0.00000
     36 H14         4.1331    3.0428    0.0000 H         1 <0>        0.00000
     37 H15         3.0531    2.2581    0.0000 H         1 <0>        0.00000
     38 H16         1.3222    5.5902    0.0000 H         1 <0>        0.00000
@<TRIPOS>BOND
     1    1    2 1
     2    2    3 ar
     3    3    4 ar
     4    4    5 ar
     5    5    6 1
     6    6    7 1
     7    7    8 1
     8    8    9 1
     9    8   10 1
    10    8   11 2
    11    5   12 ar
    12   12   13 1
    13   13   14 1
    14   14   15 1
    15   15   16 1
    16   16   17 1
    17   17   18 1
    18   18   19 am
    19   15   19 1
    20   19   20 2
    21   12   21 ar
    22    2   21 ar
    23   21   22 1
    24    1   23 1
    25    1   24 1
    26    1   25 1
    27    4   26 1
    28    6   27 1
    29    6   28 1
    30    9   29 1
    31   10   30 1
    32   13   31 1
    33   13   32 1
    34   14   33 1
    35   15   34 1
    36   16   35 1
    37   16   36 1
    38   18   37 1
    39   22   38 1
@<TRIPOS>SUBSTRUCTURE
     1 <0>         1 GROUP 0 A     ****
@<TRIPOS>MOLECULE
*****
   26    26     1     0     0
SMALL
NO_CHARGES

@<TRIPOS>ATOM
      1 S1          2.6896   -3.0314    0.0000 S.3       1 <0>        0.00000
      2 S2          4.5311    0.7131    0.0000 S.3       1 <0>        0.00000
      3 O1          1.6500   -1.9918    0.0000 O.2       1 <0>        0.00000
      4 O2          4.5311   -0.9369    0.0000 O.2       1 <0>        0.00000
      5 O3          5.2455    2.7757    0.0000 O.3       1 <0>        0.00000
      6 O4          5.9601    1.5382    0.0000 O.2       1 <0>        0.00000
      7 N1          3.1022   -0.9369    0.0000 N.am      1 <0>        0.00000
      8 C1          3.1022   -1.7619    0.0000 C.3       1 <0>        0.00000
      9 C2          3.7696   -2.2469    0.0000 C.3       1 <0>        0.00000
     10 C3          3.5147   -3.0314    0.0000 C.3       1 <0>        0.00000
     11 C4          2.4347   -2.2469    0.0000 C.2       1 <0>        0.00000
     12 C5          3.8166   -0.5244    0.0000 C.2       1 <0>        0.00000
     13 C6          3.8166    0.3006    0.0000 C.3       1 <0>        0.00000
     14 C7          4.5311    1.5382    0.0000 C.3       1 <0>        0.00000
     15 C8          5.2455    1.9507    0.0000 C.2       1 <0>        0.00000
     16 H1          5.2455    2.7757    0.0000 H         1 <0>        0.00000
     17 H2          3.1022   -0.9369    0.0000 H         1 <0>        0.00000
     18 H3          3.1022   -1.7619    0.0000 H         1 <0>        0.00000
     19 H4          3.7696   -2.2469    0.0000 H         1 <0>        0.00000
     20 H5          3.7696   -2.2469    0.0000 H         1 <0>        0.00000
     21 H6          3.5147   -3.0314    0.0000 H         1 <0>        0.00000
     22 H7          3.5147   -3.0314    0.0000 H         1 <0>        0.00000
     23 H8          3.8166    0.3006    0.0000 H         1 <0>        0.00000
     24 H9          3.8166    0.3006    0.0000 H         1 <0>        0.00000
     25 H10         4.5311    1.5382    0.0000 H         1 <0>        0.00000
     26 H11         4.5311    1.5382    0.0000 H         1 <0>        0.00000
@<TRIPOS>BOND
     1    1   10 1
     2    1   11 1
     3    2   13 1
     4    2   14 1
     5    3   11 2
     6    4   12 2
     7    5   15 1
     8    6   15 2
     9    7    8 1
    10    7   12 am
    11    8    9 1
    12    8   11 1
    13    9   10 1
    14   12   13 1
    15   14   15 1
    16    5   16 1
    17    7   17 1
    18    8   18 1
    19    9   19 1
    20    9   20 1
    21   10   21 1
    22   10   22 1
    23   13   23 1
    24   13   24 1
    25   14   25 1
    26   14   26 1
@<TRIPOS>SUBSTRUCTURE
     1 <0>         1 GROUP 0 A     ****
@<TRIPOS>MOLECULE
47D
   33    35     1     0     0
SMALL
NO_CHARGES

@<TRIPOS>ATOM
      1 C1          2.9420    2.6754    0.0000 C.ar      1 <0>        0.00000
      2 N1          2.1573    2.9303    0.0000 N.ar      1 <0>        0.00000
      3 C2          1.6724    2.2629    0.0000 C.ar      1 <0>        0.00000
      4 C3          0.8474    2.2629    0.0000 C.3       1 <0>        0.00000
      5 N2          0.4349    1.5484    0.0000 N.am      1 <0>        0.00000
      6 C4         -0.3901    1.5484    0.0000 C.ar      1 <0>        0.00000
      7 O1         -0.8026    2.2629    0.0000 O.2       1 <0>        0.00000
      8 N3         -0.8026    0.8340    0.0000 N.am      1 <0>        0.00000
      9 C5         -1.6276    0.8340    0.0000 C.3       1 <0>        0.00000
     10 C6         -2.0401    0.1195    0.0000 C.2       1 <0>        0.00000
     11 O2         -2.8651    0.1195    0.0000 O.3       1 <0>        0.00000
     12 O3         -1.6276   -0.5950    0.0000 O.2       1 <0>        0.00000
     13 C7         -0.3901    0.1195    0.0000 C.ar      1 <0>        0.00000
     14 C8          0.4349    0.1195    0.0000 C.ar      1 <0>        0.00000
     15 C9          0.8474    0.8340    0.0000 C.ar      1 <0>        0.00000
     16 O4          1.6724    0.8340    0.0000 O.2       1 <0>        0.00000
     17 S1          2.1573    1.5955    0.0000 S.3       1 <0>        0.00000
     18 C10         2.9420    1.8504    0.0000 C.ar      1 <0>        0.00000
     19 C11         3.6564    1.4379    0.0000 C.ar      1 <0>        0.00000
     20 C12         4.3709    1.8504    0.0000 C.ar      1 <0>        0.00000
     21 C13         4.3709    2.6754    0.0000 C.ar      1 <0>        0.00000
     22 Cl1         5.0854    3.0879    0.0000 Cl        1 <0>        0.00000
     23 C14         3.6564    3.0879    0.0000 C.ar      1 <0>        0.00000
     24 H1          0.8474    2.2629    0.0000 H         1 <0>        0.00000
     25 H2          0.8474    2.2629    0.0000 H         1 <0>        0.00000
     26 H3         -1.6276    0.8340    0.0000 H         1 <0>        0.00000
     27 H4         -1.6276    0.8340    0.0000 H         1 <0>        0.00000
     28 H5         -2.8651    0.1195    0.0000 H         1 <0>        0.00000
     29 H6         -0.3901    0.1195    0.0000 H         1 <0>        0.00000
     30 H7          0.4349    0.1195    0.0000 H         1 <0>        0.00000
     31 H8          3.6564    1.4379    0.0000 H         1 <0>        0.00000
     32 H9          4.3709    1.8504    0.0000 H         1 <0>        0.00000
     33 H10         3.6564    3.0879    0.0000 H         1 <0>        0.00000
@<TRIPOS>BOND
     1    1   23 ar
     2    1   18 ar
     3    1    2 1
     4    2    3 2
     5    3   17 1
     6    3    4 1
     7    4    5 1
     8    5   15 am
     9    5    6 am
    10    6    7 2
    11    6    8 am
    12    8   13 1
    13    8    9 1
    14    9   10 1
    15   10   12 2
    16   10   11 1
    17   13   14 2
    18   14   15 1
    19   15   16 2
    20   17   18 1
    21   18   19 ar
    22   19   20 ar
    23   20   21 ar
    24   21   22 1
    25   21   23 ar
    26    4   24 1
    27    4   25 1
    28    9   26 1
    29    9   27 1
    30   11   28 1
    31   13   29 1
    32   14   30 1
    33   19   31 1
    34   20   32 1
    35   23   33 1
@<TRIPOS>SUBSTRUCTURE
     1 <0>         1 GROUP 0 A     ****
@<TRIPOS>MOLECULE
D92
   58    62     1     0     0
SMALL
NO_CHARGES

@<TRIPOS>ATOM
      1 Cl1         0.0548   -4.8527    0.0000 Cl        1 <0>        0.00000
      2 C1          0.0548   -4.0277    0.0000 C.ar      1 <0>        0.00000
      3 C2          0.7692   -3.6152    0.0000 C.ar      1 <0>        0.00000
      4 C3          0.7692   -2.7902    0.0000 C.ar      1 <0>        0.00000
      5 C4          0.0548   -2.3777    0.0000 C.ar      1 <0>        0.00000
      6 N1         -0.1168   -1.5707    0.0000 N.pl3     1 <0>        0.00000
      7 C5         -0.6597   -3.6152    0.0000 C.ar      1 <0>        0.00000
      8 C6         -0.6597   -2.7902    0.0000 C.ar      1 <0>        0.00000
      9 C7         -1.2728   -2.2382    0.0000 C.ar      1 <0>        0.00000
     10 C8         -0.9372   -1.4845    0.0000 C.ar      1 <0>        0.00000
     11 C9         -1.3497   -0.7700    0.0000 C.2       1 <0>        0.00000
     12 O1         -2.1747   -0.7700    0.0000 O.2       1 <0>        0.00000
     13 N2         -0.9372   -0.0556    0.0000 N.am      1 <0>        0.00000
     14 C10        -1.3497    0.6589    0.0000 C.3       1 <0>        0.00000
     15 C11        -2.1747    0.6589    0.0000 C.3       1 <0>        0.00000
     16 C12        -2.5872    1.3734    0.0000 C.3       1 <0>        0.00000
     17 C13        -2.1747    2.0879    0.0000 C.3       1 <0>        0.00000
     18 C14        -1.3497    2.0879    0.0000 C.3       1 <0>        0.00000
     19 C15        -0.9372    1.3734    0.0000 C.3       1 <0>        0.00000
     20 N3         -0.1122    1.3734    0.0000 N.am      1 <0>        0.00000
     21 C16         0.3003    2.0879    0.0000 C.2       1 <0>        0.00000
     22 O2         -0.1122    2.8023    0.0000 O.2       1 <0>        0.00000
     23 C17         1.1253    2.0879    0.0000 C.ar      1 <0>        0.00000
     24 S1          1.6102    2.7553    0.0000 S.3       1 <0>        0.00000
     25 C18         2.3948    2.5004    0.0000 C.ar      1 <0>        0.00000
     26 C19         3.1093    2.9129    0.0000 C.3       1 <0>        0.00000
     27 N4          3.8237    2.5004    0.0000 N.3       1 <0>        0.00000
     28 C20         4.5382    2.9129    0.0000 C.3       1 <0>        0.00000
     29 C21         3.8237    1.6754    0.0000 C.3       1 <0>        0.00000
     30 C22         3.1093    1.2629    0.0000 C.3       1 <0>        0.00000
     31 C23         2.3948    1.6754    0.0000 C.ar      1 <0>        0.00000
     32 N5          1.6102    1.4204    0.0000 N.ar      1 <0>        0.00000
     33 H1         -1.6417    0.1532    0.0000 H         1 <0>        0.00000
     34 H2         -0.6453    0.8677    0.0000 H         1 <0>        0.00000
     35 H3          0.7692   -3.6152    0.0000 H         1 <0>        0.00000
     36 H4          0.7692   -2.7902    0.0000 H         1 <0>        0.00000
     37 H5         -0.1168   -1.5707    0.0000 H         1 <0>        0.00000
     38 H6         -0.6597   -3.6152    0.0000 H         1 <0>        0.00000
     39 H7         -1.2728   -2.2382    0.0000 H         1 <0>        0.00000
     40 H8         -0.9372   -0.0556    0.0000 H         1 <0>        0.00000
     41 H9         -2.1747    0.6589    0.0000 H         1 <0>        0.00000
     42 H10        -2.1747    0.6589    0.0000 H         1 <0>        0.00000
     43 H11        -2.5872    1.3734    0.0000 H         1 <0>        0.00000
     44 H12        -2.5872    1.3734    0.0000 H         1 <0>        0.00000
     45 H13        -2.1747    2.0879    0.0000 H         1 <0>        0.00000
     46 H14        -2.1747    2.0879    0.0000 H         1 <0>        0.00000
     47 H15        -1.3497    2.0879    0.0000 H         1 <0>        0.00000
     48 H16        -1.3497    2.0879    0.0000 H         1 <0>        0.00000
     49 H17        -0.1122    1.3734    0.0000 H         1 <0>        0.00000
     50 H18         3.1093    2.9129    0.0000 H         1 <0>        0.00000
     51 H19         3.1093    2.9129    0.0000 H         1 <0>        0.00000
     52 H20         4.5382    2.9129    0.0000 H         1 <0>        0.00000
     53 H21         4.5382    2.9129    0.0000 H         1 <0>        0.00000
     54 H22         4.5382    2.9129    0.0000 H         1 <0>        0.00000
     55 H23         3.8237    1.6754    0.0000 H         1 <0>        0.00000
     56 H24         3.8237    1.6754    0.0000 H         1 <0>        0.00000
     57 H25         3.1093    1.2629    0.0000 H         1 <0>        0.00000
     58 H26         3.1093    1.2629    0.0000 H         1 <0>        0.00000
@<TRIPOS>BOND
     1    1    2 1
     2    2    7 ar
     3    2    3 ar
     4    3    4 ar
     5    4    5 ar
     6    5    8 ar
     7    5    6 1
     8    6   10 1
     9    7    8 ar
    10    8    9 1
    11    9   10 2
    12   10   11 1
    13   11   13 am
    14   11   12 2
    15   13   14 1
    16   14   15 1
    17   14   19 1
    18   14   33 1
    19   15   16 1
    20   16   17 1
    21   17   18 1
    22   18   19 1
    23   19   20 1
    24   19   34 1
    25   20   21 am
    26   21   23 1
    27   21   22 2
    28   23   32 2
    29   23   24 1
    30   24   25 1
    31   25   26 1
    32   25   31 2
    33   26   27 1
    34   27   28 1
    35   27   29 1
    36   29   30 1
    37   30   31 1
    38   31   32 1
    39    3   35 1
    40    4   36 1
    41    6   37 1
    42    7   38 1
    43    9   39 1
    44   13   40 1
    45   15   41 1
    46   15   42 1
    47   16   43 1
    48   16   44 1
    49   17   45 1
    50   17   46 1
    51   18   47 1
    52   18   48 1
    53   20   49 1
    54   26   50 1
    55   26   51 1
    56   28   52 1
    57   28   53 1
    58   28   54 1
    59   29   55 1
    60   29   56 1
    61   30   57 1
    62   30   58 1
@<TRIPOS>SUBSTRUCTURE
     1 <0>         1 GROUP 0 A     ****
@<TRIPOS>MOLECULE
*****
   39    38     1     0     0
SMALL
NO_CHARGES

@<TRIPOS>ATOM
      1 O1          4.7586    3.5724    0.0000 O.3       1 <0>        0.00000
      2 C1          5.4730    3.9849    0.0000 C.3       1 <0>        0.00000
      3 C2          6.1875    3.5724    0.0000 C.3       1 <0>        0.00000
      4 C3          6.9020    3.9849    0.0000 C.3       1 <0>        0.00000
      5 C4          7.6164    3.5724    0.0000 C.3       1 <0>        0.00000
      6 C5          8.3309    3.9849    0.0000 C.3       1 <0>        0.00000
      7 C6          9.0454    3.5724    0.0000 C.3       1 <0>        0.00000
      8 C7          9.7599    3.9849    0.0000 C.3       1 <0>        0.00000
      9 C8         10.4743    3.5724    0.0000 C.3       1 <0>        0.00000
     10 C9         11.1888    3.9849    0.0000 C.3       1 <0>        0.00000
     11 C10        11.9033    3.5724    0.0000 C.3       1 <0>        0.00000
     12 C11        12.6177    3.9849    0.0000 C.3       1 <0>        0.00000
     13 C12        13.3322    3.5724    0.0000 C.3       1 <0>        0.00000
     14 Br1        14.0467    3.9849    0.0000 Br        1 <0>        0.00000
     15 H1          4.7586    3.5724    0.0000 H         1 <0>        0.00000
     16 H2          5.4730    3.9849    0.0000 H         1 <0>        0.00000
     17 H3          5.4730    3.9849    0.0000 H         1 <0>        0.00000
     18 H4          6.1875    3.5724    0.0000 H         1 <0>        0.00000
     19 H5          6.1875    3.5724    0.0000 H         1 <0>        0.00000
     20 H6          6.9020    3.9849    0.0000 H         1 <0>        0.00000
     21 H7          6.9020    3.9849    0.0000 H         1 <0>        0.00000
     22 H8          7.6164    3.5724    0.0000 H         1 <0>        0.00000
     23 H9          7.6164    3.5724    0.0000 H         1 <0>        0.00000
     24 H10         8.3309    3.9849    0.0000 H         1 <0>        0.00000
     25 H11         8.3309    3.9849    0.0000 H         1 <0>        0.00000
     26 H12         9.0454    3.5724    0.0000 H         1 <0>        0.00000
     27 H13         9.0454    3.5724    0.0000 H         1 <0>        0.00000
     28 H14         9.7599    3.9849    0.0000 H         1 <0>        0.00000
     29 H15         9.7599    3.9849    0.0000 H         1 <0>        0.00000
     30 H16        10.4743    3.5724    0.0000 H         1 <0>        0.00000
     31 H17        10.4743    3.5724    0.0000 H         1 <0>        0.00000
     32 H18        11.1888    3.9849    0.0000 H         1 <0>        0.00000
     33 H19        11.1888    3.9849    0.0000 H         1 <0>        0.00000
     34 H20        11.9033    3.5724    0.0000 H         1 <0>        0.00000
     35 H21        11.9033    3.5724    0.0000 H         1 <0>        0.00000
     36 H22        12.6177    3.9849    0.0000 H         1 <0>        0.00000
     37 H23        12.6177    3.9849    0.0000 H         1 <0>        0.00000
     38 H24        13.3322    3.5724    0.0000 H         1 <0>        0.00000
     39 H25        13.3322    3.5724    0.0000 H         1 <0>        0.00000
@<TRIPOS>BOND
     1    1    2 1
     2    2    3 1
     3    3    4 1
     4    4    5 1
     5    5    6 1
     6    6    7 1
     7    7    8 1
     8    8    9 1
     9    9   10 1
    10   10   11 1
    11   11   12 1
    12   12   13 1
    13   13   14 1
    14    1   15 1
    15    2   16 1
    16    2   17 1
    17    3   18 1
    18    3   19 1
    19    4   20 1
    20    4   21 1
    21    5   22 1
    22    5   23 1
    23    6   24 1
    24    6   25 1
    25    7   26 1
    26    7   27 1
    27    8   28 1
    28    8   29 1
    29    9   30 1
    30    9   31 1
    31   10   32 1
    32   10   33 1
    33   11   34 1
    34   11   35 1
    35   12   36 1
    36   12   37 1
    37   13   38 1
    38   13   39 1
@<TRIPOS>SUBSTRUCTURE
     1 <0>         1 GROUP 0 A     ****
@<TRIPOS>MOLECULE
*****
   38    39     1     0     0
SMALL
NO_CHARGES

@<TRIPOS>ATOM
      1 C1          1.3222    7.2402    0.0000 C.3       1 <0>        0.00000
      2 C2          2.0367    6.8277    0.0000 C.ar      1 <0>        0.00000
      3 N1          2.7512    7.2402    0.0000 N.ar      1 <0>        0.00000
      4 C3          3.4656    6.8277    0.0000 C.ar      1 <0>        0.00000
      5 C4          3.4656    6.0027    0.0000 C.ar      1 <0>        0.00000
      6 C5          4.1801    5.5902    0.0000 C.3       1 <0>        0.00000
      7 O1          4.8946    6.0027    0.0000 O.3       1 <0>        0.00000
      8 P1          5.6091    5.5902    0.0000 P.3       1 <0>        0.00000
      9 O2          6.3235    5.1777    0.0000 O.3       1 <0>        0.00000
     10 O3          6.0216    6.3047    0.0000 O.3       1 <0>        0.00000
     11 O4          5.1966    4.8757    0.0000 O.2       1 <0>        0.00000
     12 C6          2.7512    5.5902    0.0000 C.ar      1 <0>        0.00000
     13 C7          2.7512    4.7652    0.0000 C.3       1 <0>        0.00000
     14 N2          3.4656    4.3527    0.0000 N.3       1 <0>        0.00000
     15 C8          3.4656    3.5277    0.0000 C.3       1 <0>        0.00000
     16 C9          4.1331    3.0428    0.0000 C.3       1 <0>        0.00000
     17 O5          3.8781    2.2581    0.0000 O.3       1 <0>        0.00000
     18 N3          3.0531    2.2581    0.0000 N.am      1 <0>        0.00000
     19 C10         2.7982    3.0428    0.0000 C.2       1 <0>        0.00000
     20 O6          2.0136    3.2977    0.0000 O.2       1 <0>        0.00000
     21 C11         2.0367    6.0027    0.0000 C.ar      1 <0>        0.00000
     22 O7          1.3222    5.5902    0.0000 O.3       1 <0>        0.00000
     23 H1          1.3222    7.2402    0.0000 H         1 <0>        0.00000
     24 H2          1.3222    7.2402    0.0000 H         1 <0>        0.00000
     25 H3          1.3222    7.2402    0.0000 H         1 <0>        0.00000
     26 H4          3.4656    6.8277    0.0000 H         1 <0>        0.00000
     27 H5          4.1801    5.5902    0.0000 H         1 <0>        0.00000
     28 H6          4.1801    5.5902    0.0000 H         1 <0>        0.00000
     29 H7          6.3235    5.1777    0.0000 H         1 <0>        0.00000
     30 H8          6.0216    6.3047    0.0000 H         1 <0>        0.00000
     31 H9          2.7512    4.7652    0.0000 H         1 <0>        0.00000
     32 H10         2.7512    4.7652    0.0000 H         1 <0>        0.00000
     33 H11         3.4656    4.3527    0.0000 H         1 <0>        0.00000
     34 H12         3.4656    3.5277    0.0000 H         1 <0>        0.00000
     35 H13         4.1331    3.0428    0.0000 H         1 <0>        0.00000
     36 H14         4.1331    3.0428    0.0000 H         1 <0>        0.00000
     37 H15         3.0531    2.2581    0.0000 H         1 <0>        0.00000
     38 H16         1.3222    5.5902    0.0000 H         1 <0>        0.00000
@<TRIPOS>BOND
     1    1    2 1
     2    2    3 ar
     3    3    4 ar
     4    4    5 ar
     5    5    6 1
     6    6    7 1
     7    7    8 1
     8    8    9 1
     9    8   10 1
    10    8   11 2
    11    5   12 ar
    12   12   13 1
    13   13   14 1
    14   14   15 1
    15   15   16 1
    16   16   17 1
    17   17   18 1
    18   18   19 am
    19   15   19 1
    20   19   20 2
    21   12   21 ar
    22    2   21 ar
    23   21   22 1
    24    1   23 1
    25    1   24 1
    26    1   25 1
    27    4   26 1
    28    6   27 1
    29    6   28 1
    30    9   29 1
    31   10   30 1
    32   13   31 1
    33   13   32 1
    34   14   33 1
    35   15   34 1
    36   16   35 1
    37   16   36 1
    38   18   37 1
    39   22   38 1
@<TRIPOS>SUBSTRUCTURE
     1 <0>         1 GROUP 0 A     ****
@<TRIPOS>MOLECULE
VZZ
   39    38     1     0     0
SMALL
NO_CHARGES

@<TRIPOS>ATOM
      1 O1         -4.3064    0.3438    0.0000 O.2       1 <0>        0.00000
      2 C1         -3.5919   -0.0687    0.0000 C.2       1 <0>        0.00000
      3 O2         -3.5919   -0.8938    0.0000 O.3       1 <0>        0.00000
      4 C2         -2.8773    0.3438    0.0000 C.3       1 <0>        0.00000
      5 C3         -2.1628   -0.0687    0.0000 C.3       1 <0>        0.00000
      6 C4         -1.4483    0.3438    0.0000 C.3       1 <0>        0.00000
      7 C5         -0.7338   -0.0687    0.0000 C.3       1 <0>        0.00000
      8 C6         -0.0192    0.3438    0.0000 C.3       1 <0>        0.00000
      9 C7          0.6953   -0.0687    0.0000 C.3       1 <0>        0.00000
     10 C8          1.4098    0.3438    0.0000 C.3       1 <0>        0.00000
     11 C9          2.1244   -0.0687    0.0000 C.3       1 <0>        0.00000
     12 C10         2.8389    0.3438    0.0000 C.3       1 <0>        0.00000
     13 C11         3.5534   -0.0687    0.0000 C.3       1 <0>        0.00000
     14 O3          4.2679    0.3438    0.0000 O.3       1 <0>        0.00000
     15 C12         4.9825   -0.0687    0.0000 C.2       1 <0>        0.00000
     16 O4          5.6969    0.3438    0.0000 O.2       1 <0>        0.00000
     17 S1          4.9825   -0.8938    0.0000 S.3       1 <0>        0.00000
     18 H1         -3.5919   -0.8938    0.0000 H         1 <0>        0.00000
     19 H2         -2.8773    0.3438    0.0000 H         1 <0>        0.00000
     20 H3         -2.8773    0.3438    0.0000 H         1 <0>        0.00000
     21 H4         -2.1628   -0.0687    0.0000 H         1 <0>        0.00000
     22 H5         -2.1628   -0.0687    0.0000 H         1 <0>        0.00000
     23 H6         -1.4483    0.3438    0.0000 H         1 <0>        0.00000
     24 H7         -1.4483    0.3438    0.0000 H         1 <0>        0.00000
     25 H8         -0.7338   -0.0687    0.0000 H         1 <0>        0.00000
     26 H9         -0.7338   -0.0687    0.0000 H         1 <0>        0.00000
     27 H10        -0.0192    0.3438    0.0000 H         1 <0>        0.00000
     28 H11        -0.0192    0.3438    0.0000 H         1 <0>        0.00000
     29 H12         0.6953   -0.0687    0.0000 H         1 <0>        0.00000
     30 H13         0.6953   -0.0687    0.0000 H         1 <0>        0.00000
     31 H14         1.4098    0.3438    0.0000 H         1 <0>        0.00000
     32 H15         1.4098    0.3438    0.0000 H         1 <0>        0.00000
     33 H16         2.1244   -0.0687    0.0000 H         1 <0>        0.00000
     34 H17         2.1244   -0.0687    0.0000 H         1 <0>        0.00000
     35 H18         2.8389    0.3438    0.0000 H         1 <0>        0.00000
     36 H19         2.8389    0.3438    0.0000 H         1 <0>        0.00000
     37 H20         3.5534   -0.0687    0.0000 H         1 <0>        0.00000
     38 H21         3.5534   -0.0687    0.0000 H         1 <0>        0.00000
     39 H22         4.9825   -0.8938    0.0000 H         1 <0>        0.00000
@<TRIPOS>BOND
     1    1    2 2
     2    2    3 1
     3    2    4 1
     4    4    5 1
     5    5    6 1
     6    6    7 1
     7    7    8 1
     8    8    9 1
     9    9   10 1
    10   10   11 1
    11   11   12 1
    12   12   13 1
    13   13   14 1
    14   14   15 1
    15   15   16 2
    16   15   17 1
    17    3   18 1
    18    4   19 1
    19    4   20 1
    20    5   21 1
    21    5   22 1
    22    6   23 1
    23    6   24 1
    24    7   25 1
    25    7   26 1
    26    8   27 1
    27    8   28 1
    28    9   29 1
    29    9   30 1
    30   10   31 1
    31   10   32 1
    32   11   33 1
    33   11   34 1
    34   12   35 1
    35   12   36 1
    36   13   37 1
    37   13   38 1
    38   17   39 1
@<TRIPOS>SUBSTRUCTURE
     1 <0>         1 GROUP 0 A     ****
@<TRIPOS>MOLECULE
*****
   51    54     1     0     0
SMALL
NO_CHARGES

@<TRIPOS>ATOM
      1 Br1         8.6275    0.3477    0.0000 Br        1 <0>        0.00000
      2 O1          2.0917   -1.7578    0.0000 O.3       1 <0>        0.00000
      3 O2          7.5775    1.7956    0.0000 O.2       1 <0>        0.00000
      4 C1          5.1119   -0.0648    0.0000 C.3       1 <0>        0.00000
      5 C2          4.3612   -0.4829    0.0000 C.3       1 <0>        0.00000
      6 C3          5.8262   -0.4772    0.0000 C.3       1 <0>        0.00000
      7 C4          6.5406   -0.0648    0.0000 C.3       1 <0>        0.00000
      8 C5          4.3545   -1.3421    0.0000 C.3       1 <0>        0.00000
      9 C6          6.5406    0.7602    0.0000 C.3       1 <0>        0.00000
     10 C7          5.1119    0.7602    0.0000 C.3       1 <0>        0.00000
     11 C8          5.8395   -1.3363    0.0000 C.3       1 <0>        0.00000
     12 C9          5.8262    1.1727    0.0000 C.3       1 <0>        0.00000
     13 C10         5.0987   -1.7718    0.0000 C.3       1 <0>        0.00000
     14 C11         3.5966   -0.0176    0.0000 C.3       1 <0>        0.00000
     15 C12         7.3211   -0.3162    0.0000 C.3       1 <0>        0.00000
     16 C13         3.5829   -1.7956    0.0000 C.3       1 <0>        0.00000
     17 C14         4.3676    0.3421    0.0000 C.3       1 <0>        0.00000
     18 C15         7.3211    1.0115    0.0000 C.2       1 <0>        0.00000
     19 C16         7.8026    0.3477    0.0000 C.3       1 <0>        0.00000
     20 C17         2.8147   -0.4531    0.0000 C.3       1 <0>        0.00000
     21 C18         2.8078   -1.3480    0.0000 C.3       1 <0>        0.00000
     22 C19         6.5406    1.5851    0.0000 C.3       1 <0>        0.00000
     23 H1          5.6833    0.2652    0.0000 H         1 <0>        0.00000
     24 H2          6.4003   -0.8028    0.0000 H         1 <0>        0.00000
     25 H3          6.6105   -0.7210    0.0000 H         1 <0>        0.00000
     26 H4          4.3571   -2.0021    0.0000 H         1 <0>        0.00000
     27 H5          2.0917   -1.7578    0.0000 H         1 <0>        0.00000
     28 H6          5.1119    0.7602    0.0000 H         1 <0>        0.00000
     29 H7          5.1119    0.7602    0.0000 H         1 <0>        0.00000
     30 H8          5.8395   -1.3363    0.0000 H         1 <0>        0.00000
     31 H9          5.8395   -1.3363    0.0000 H         1 <0>        0.00000
     32 H10         5.8262    1.1727    0.0000 H         1 <0>        0.00000
     33 H11         5.8262    1.1727    0.0000 H         1 <0>        0.00000
     34 H12         5.0987   -1.7718    0.0000 H         1 <0>        0.00000
     35 H13         5.0987   -1.7718    0.0000 H         1 <0>        0.00000
     36 H14         3.5966   -0.0176    0.0000 H         1 <0>        0.00000
     37 H15         3.5966   -0.0176    0.0000 H         1 <0>        0.00000
     38 H16         7.3211   -0.3162    0.0000 H         1 <0>        0.00000
     39 H17         7.3211   -0.3162    0.0000 H         1 <0>        0.00000
     40 H18         3.5829   -1.7956    0.0000 H         1 <0>        0.00000
     41 H19         3.5829   -1.7956    0.0000 H         1 <0>        0.00000
     42 H20         4.3676    0.3421    0.0000 H         1 <0>        0.00000
     43 H21         4.3676    0.3421    0.0000 H         1 <0>        0.00000
     44 H22         4.3676    0.3421    0.0000 H         1 <0>        0.00000
     45 H23         7.8026    0.3477    0.0000 H         1 <0>        0.00000
     46 H24         2.8147   -0.4531    0.0000 H         1 <0>        0.00000
     47 H25         2.8147   -0.4531    0.0000 H         1 <0>        0.00000
     48 H26         2.8078   -1.3480    0.0000 H         1 <0>        0.00000
     49 H27         6.5406    1.5851    0.0000 H         1 <0>        0.00000
     50 H28         6.5406    1.5851    0.0000 H         1 <0>        0.00000
     51 H29         6.5406    1.5851    0.0000 H         1 <0>        0.00000
@<TRIPOS>BOND
     1    1   19 1
     2    2   21 1
     3    3   18 2
     4    4    5 1
     5    4    6 1
     6    4   10 1
     7    4   23 1
     8    5    8 1
     9    5   14 1
    10    5   17 1
    11    6    7 1
    12    6   11 1
    13    6   24 1
    14    7    9 1
    15    7   15 1
    16    7   25 1
    17    8   13 1
    18    8   16 1
    19    8   26 1
    20    9   12 1
    21    9   18 1
    22    9   22 1
    23   10   12 1
    24   11   13 1
    25   14   20 1
    26   15   19 1
    27   16   21 1
    28   18   19 1
    29   20   21 1
    30    2   27 1
    31   10   28 1
    32   10   29 1
    33   11   30 1
    34   11   31 1
    35   12   32 1
    36   12   33 1
    37   13   34 1
    38   13   35 1
    39   14   36 1
    40   14   37 1
    41   15   38 1
    42   15   39 1
    43   16   40 1
    44   16   41 1
    45   17   42 1
    46   17   43 1
    47   17   44 1
    48   19   45 1
    49   20   46 1
    50   20   47 1
    51   21   48 1
    52   22   49 1
    53   22   50 1
    54   22   51 1
@<TRIPOS>SUBSTRUCTURE
     1 <0>         1 GROUP 0 A     ****
@<TRIPOS>MOLECULE
304
   53    56     1     0     0
SMALL
NO_CHARGES

@<TRIPOS>ATOM
      1 O1          5.9104    1.5551    0.0000 O.3       1 <0>        0.00000
      2 C1          5.3833    0.5186    0.0000 C.3       1 <0>        0.00000
      3 C2          5.3833   -0.3064    0.0000 C.3       1 <0>        0.00000
      4 C3          4.6689   -0.7189    0.0000 C.3       1 <0>        0.00000
      5 C4          3.9544   -0.3064    0.0000 C.3       1 <0>        0.00000
      6 C5          6.1640    0.7700    0.0000 C.3       1 <0>        0.00000
      7 C6          6.1640   -0.5579    0.0000 C.3       1 <0>        0.00000
      8 C7          4.6689    0.9311    0.0000 C.3       1 <0>        0.00000
      9 C8          6.6455    0.1061    0.0000 C.3       1 <0>        0.00000
     10 C9          3.2036   -0.7246    0.0000 C.3       1 <0>        0.00000
     11 C10         4.6821   -1.5783    0.0000 C.3       1 <0>        0.00000
     12 C11         3.9544    0.5186    0.0000 C.2       1 <0>        0.00000
     13 C12         5.3833    1.3436    0.0000 C.3       1 <0>        0.00000
     14 C13         3.9412   -2.0136    0.0000 C.3       1 <0>        0.00000
     15 C14         3.1970   -1.5840    0.0000 C.2       1 <0>        0.00000
     16 C15         2.4389   -0.2592    0.0000 C.3       1 <0>        0.00000
     17 C16         4.6689    1.7561    0.0000 C.3       1 <0>        0.00000
     18 C17         6.8323    1.2538    0.0000 C.1       1 <0>        0.00000
     19 C18         1.6570   -0.6948    0.0000 C.3       1 <0>        0.00000
     20 C19         2.4252   -2.0375    0.0000 C.2       1 <0>        0.00000
     21 C20         3.2399    0.9311    0.0000 C.2       1 <0>        0.00000
     22 C21         1.6500   -1.5899    0.0000 C.3       1 <0>        0.00000
     23 C22         7.5006    1.7376    0.0000 C.1       1 <0>        0.00000
     24 H1          5.4532   -0.9628    0.0000 H         1 <0>        0.00000
     25 H2          5.2430   -1.0446    0.0000 H         1 <0>        0.00000
     26 H3          4.5260    0.0236    0.0000 H         1 <0>        0.00000
     27 H4          3.2163   -0.0647    0.0000 H         1 <0>        0.00000
     28 H5          5.9104    1.5551    0.0000 H         1 <0>        0.00000
     29 H6          6.1640   -0.5579    0.0000 H         1 <0>        0.00000
     30 H7          6.1640   -0.5579    0.0000 H         1 <0>        0.00000
     31 H8          4.6689    0.9311    0.0000 H         1 <0>        0.00000
     32 H9          4.6689    0.9311    0.0000 H         1 <0>        0.00000
     33 H10         6.6455    0.1061    0.0000 H         1 <0>        0.00000
     34 H11         6.6455    0.1061    0.0000 H         1 <0>        0.00000
     35 H12         4.6821   -1.5783    0.0000 H         1 <0>        0.00000
     36 H13         4.6821   -1.5783    0.0000 H         1 <0>        0.00000
     37 H14         5.3833    1.3436    0.0000 H         1 <0>        0.00000
     38 H15         5.3833    1.3436    0.0000 H         1 <0>        0.00000
     39 H16         3.9412   -2.0136    0.0000 H         1 <0>        0.00000
     40 H17         3.9412   -2.0136    0.0000 H         1 <0>        0.00000
     41 H18         2.4389   -0.2592    0.0000 H         1 <0>        0.00000
     42 H19         2.4389   -0.2592    0.0000 H         1 <0>        0.00000
     43 H20         4.6689    1.7561    0.0000 H         1 <0>        0.00000
     44 H21         4.6689    1.7561    0.0000 H         1 <0>        0.00000
     45 H22         4.6689    1.7561    0.0000 H         1 <0>        0.00000
     46 H23         1.6570   -0.6948    0.0000 H         1 <0>        0.00000
     47 H24         1.6570   -0.6948    0.0000 H         1 <0>        0.00000
     48 H25         2.4252   -2.0375    0.0000 H         1 <0>        0.00000
     49 H26         3.2399    0.9311    0.0000 H         1 <0>        0.00000
     50 H27         3.2399    0.9311    0.0000 H         1 <0>        0.00000
     51 H28         1.6500   -1.5899    0.0000 H         1 <0>        0.00000
     52 H29         1.6500   -1.5899    0.0000 H         1 <0>        0.00000
     53 H30         7.5006    1.7376    0.0000 H         1 <0>        0.00000
@<TRIPOS>BOND
     1    1    6 1
     2    2    3 1
     3    2    6 1
     4    2    8 1
     5    2   13 1
     6    3    4 1
     7    3    7 1
     8    3   24 1
     9    4    5 1
    10    4   11 1
    11    4   25 1
    12    5   10 1
    13    5   12 1
    14    5   26 1
    15    6    9 1
    16    6   18 1
    17    7    9 1
    18    8   12 1
    19   10   15 1
    20   10   16 1
    21   10   27 1
    22   11   14 1
    23   12   21 2
    24   13   17 1
    25   14   15 1
    26   15   20 2
    27   16   19 1
    28   18   23 3
    29   19   22 1
    30   20   22 1
    31    1   28 1
    32    7   29 1
    33    7   30 1
    34    8   31 1
    35    8   32 1
    36    9   33 1
    37    9   34 1
    38   11   35 1
    39   11   36 1
    40   13   37 1
    41   13   38 1
    42   14   39 1
    43   14   40 1
    44   16   41 1
    45   16   42 1
    46   17   43 1
    47   17   44 1
    48   17   45 1
    49   19   46 1
    50   19   47 1
    51   20   48 1
    52   21   49 1
    53   21   50 1
    54   22   51 1
    55   22   52 1
    56   23   53 1
@<TRIPOS>SUBSTRUCTURE
     1 <0>         1 GROUP 0 A     ****
@<TRIPOS>MOLECULE
4826
   42    44     1     0     0
SMALL
NO_CHARGES

@<TRIPOS>ATOM
      1 S1          2.9849    2.1190    0.0000 S.3       1 <0>        0.00000
      2 N1          3.0319   -2.0786    0.0000 N.3       1 <0>        0.00000
      3 N2          3.0319    0.3965    0.0000 N.pl3     1 <0>        0.00000
      4 C1          3.0319   -0.4285    0.0000 C.3       1 <0>        0.00000
      5 C2          2.3175   -0.8410    0.0000 C.3       1 <0>        0.00000
      6 C3          3.7465   -0.8410    0.0000 C.3       1 <0>        0.00000
      7 C4          2.3175   -1.6660    0.0000 C.3       1 <0>        0.00000
      8 C5          3.7465   -1.6660    0.0000 C.3       1 <0>        0.00000
      9 C6          2.3175    0.8090    0.0000 C.3       1 <0>        0.00000
     10 C7          3.7465    0.8090    0.0000 C.ar      1 <0>        0.00000
     11 C8          3.0319   -2.9036    0.0000 C.3       1 <0>        0.00000
     12 C9          2.3175    1.6340    0.0000 C.ar      1 <0>        0.00000
     13 C10         4.4610    0.3965    0.0000 C.ar      1 <0>        0.00000
     14 C11         3.7465    1.6340    0.0000 C.ar      1 <0>        0.00000
     15 C12         1.6500    2.1190    0.0000 C.ar      1 <0>        0.00000
     16 C13         5.1754    0.8090    0.0000 C.ar      1 <0>        0.00000
     17 C14         4.4610    2.0465    0.0000 C.ar      1 <0>        0.00000
     18 C15         5.1754    1.6340    0.0000 C.ar      1 <0>        0.00000
     19 C16         1.9050    2.9036    0.0000 C.ar      1 <0>        0.00000
     20 C17         2.7300    2.9036    0.0000 C.ar      1 <0>        0.00000
     21 H1          3.0319   -0.4285    0.0000 H         1 <0>        0.00000
     22 H2          2.3175   -0.8410    0.0000 H         1 <0>        0.00000
     23 H3          2.3175   -0.8410    0.0000 H         1 <0>        0.00000
     24 H4          3.7465   -0.8410    0.0000 H         1 <0>        0.00000
     25 H5          3.7465   -0.8410    0.0000 H         1 <0>        0.00000
     26 H6          2.3175   -1.6660    0.0000 H         1 <0>        0.00000
     27 H7          2.3175   -1.6660    0.0000 H         1 <0>        0.00000
     28 H8          3.7465   -1.6660    0.0000 H         1 <0>        0.00000
     29 H9          3.7465   -1.6660    0.0000 H         1 <0>        0.00000
     30 H10         2.3175    0.8090    0.0000 H         1 <0>        0.00000
     31 H11         2.3175    0.8090    0.0000 H         1 <0>        0.00000
     32 H12         3.0319   -2.9036    0.0000 H         1 <0>        0.00000
     33 H13         3.0319   -2.9036    0.0000 H         1 <0>        0.00000
     34 H14         3.0319   -2.9036    0.0000 H         1 <0>        0.00000
     35 H15         4.4610    0.3965    0.0000 H         1 <0>        0.00000
     36 H16         3.7465    1.6340    0.0000 H         1 <0>        0.00000
     37 H17         1.6500    2.1190    0.0000 H         1 <0>        0.00000
     38 H18         5.1754    0.8090    0.0000 H         1 <0>        0.00000
     39 H19         4.4610    2.0465    0.0000 H         1 <0>        0.00000
     40 H20         5.1754    1.6340    0.0000 H         1 <0>        0.00000
     41 H21         1.9050    2.9036    0.0000 H         1 <0>        0.00000
     42 H22         2.7300    2.9036    0.0000 H         1 <0>        0.00000
@<TRIPOS>BOND
     1    1   12 1
     2    1   20 1
     3    2    7 1
     4    2    8 1
     5    2   11 1
     6    3    4 1
     7    3    9 1
     8    3   10 1
     9    4    5 1
    10    4    6 1
    11    5    7 1
    12    6    8 1
    13    9   12 1
    14   10   13 ar
    15   10   14 ar
    16   12   15 2
    17   13   16 ar
    18   14   17 ar
    19   15   19 1
    20   16   18 ar
    21   17   18 ar
    22   19   20 2
    23    4   21 1
    24    5   22 1
    25    5   23 1
    26    6   24 1
    27    6   25 1
    28    7   26 1
    29    7   27 1
    30    8   28 1
    31    8   29 1
    32    9   30 1
    33    9   31 1
    34   11   32 1
    35   11   33 1
    36   11   34 1
    37   13   35 1
    38   14   36 1
    39   15   37 1
    40   16   38 1
    41   17   39 1
    42   18   40 1
    43   19   41 1
    44   20   42 1
@<TRIPOS>SUBSTRUCTURE
     1 <0>         1 GROUP 0 A     ****
@<TRIPOS>MOLECULE
P2C
   30    31     1     0     0
SMALL
NO_CHARGES

@<TRIPOS>ATOM
      1 Cl1         0.1779    2.5801    0.0000 Cl        1 <0>        0.00000
      2 C1          0.1779    1.7551    0.0000 C.ar      1 <0>        0.00000
      3 C2          0.8924    1.3426    0.0000 C.ar      1 <0>        0.00000
      4 O1          1.6069    1.7551    0.0000 O.3       1 <0>        0.00000
      5 O2          1.6069    2.5801    0.0000 O.3       1 <0>        0.00000
      6 O3          2.3213    2.9926    0.0000 O.3       1 <0>        0.00000
      7 C3          0.8924    0.5176    0.0000 C.ar      1 <0>        0.00000
      8 Cl2         1.6069    0.1051    0.0000 Cl        1 <0>        0.00000
      9 C4          0.1779    0.1051    0.0000 C.ar      1 <0>        0.00000
     10 C5         -0.5365    1.3426    0.0000 C.ar      1 <0>        0.00000
     11 C6         -0.5365    0.5176    0.0000 C.ar      1 <0>        0.00000
     12 N1         -1.2510    0.1051    0.0000 N.pl3     1 <0>        0.00000
     13 C7         -1.2510   -0.7199    0.0000 C.ar      1 <0>        0.00000
     14 C8         -0.5365   -1.1324    0.0000 C.ar      1 <0>        0.00000
     15 C9         -0.5365   -1.9574    0.0000 C.ar      1 <0>        0.00000
     16 C10        -1.2510   -2.3699    0.0000 C.ar      1 <0>        0.00000
     17 C11        -1.9655   -1.9574    0.0000 C.ar      1 <0>        0.00000
     18 C12        -1.9655   -1.1324    0.0000 C.ar      1 <0>        0.00000
     19 C13        -2.6800   -0.7199    0.0000 C.2       1 <0>        0.00000
     20 O4         -3.3944   -1.1324    0.0000 O.2       1 <0>        0.00000
     21 O5         -2.6800    0.1051    0.0000 O.3       1 <0>        0.00000
     22 H1          2.3213    2.9926    0.0000 H         1 <0>        0.00000
     23 H2          0.1779    0.1051    0.0000 H         1 <0>        0.00000
     24 H3         -0.5365    1.3426    0.0000 H         1 <0>        0.00000
     25 H4         -1.2510    0.1051    0.0000 H         1 <0>        0.00000
     26 H5         -0.5365   -1.1324    0.0000 H         1 <0>        0.00000
     27 H6         -0.5365   -1.9574    0.0000 H         1 <0>        0.00000
     28 H7         -1.2510   -2.3699    0.0000 H         1 <0>        0.00000
     29 H8         -1.9655   -1.9574    0.0000 H         1 <0>        0.00000
     30 H9         -2.6800    0.1051    0.0000 H         1 <0>        0.00000
@<TRIPOS>BOND
     1    1    2 1
     2    2    3 ar
     3    2   10 ar
     4    3    4 1
     5    3    7 ar
     6    4    5 1
     7    5    6 1
     8    7    8 1
     9    7    9 ar
    10    9   11 ar
    11   10   11 ar
    12   11   12 1
    13   12   13 1
    14   13   14 ar
    15   13   18 ar
    16   14   15 ar
    17   15   16 ar
    18   16   17 ar
    19   17   18 ar
    20   18   19 1
    21   19   20 2
    22   19   21 1
    23    6   22 1
    24    9   23 1
    25   10   24 1
    26   12   25 1
    27   14   26 1
    28   15   27 1
    29   16   28 1
    30   17   29 1
    31   21   30 1
@<TRIPOS>SUBSTRUCTURE
     1 <0>         1 GROUP 0 A     ****
@<TRIPOS>MOLECULE
292
   39    42     1     0     0
SMALL
NO_CHARGES

@<TRIPOS>ATOM
      1 C1         -3.7546    1.5699    0.0000 C.3       1 <0>        0.00000
      2 C2         -3.0009    1.9055    0.0000 C.3       1 <0>        0.00000
      3 C3         -3.0871    1.0850    0.0000 C.3       1 <0>        0.00000
      4 C4         -2.7516    0.3313    0.0000 C.ar      1 <0>        0.00000
      5 C5         -1.9446    0.1598    0.0000 C.ar      1 <0>        0.00000
      6 C6         -1.8584   -0.6607    0.0000 C.ar      1 <0>        0.00000
      7 N1         -2.6120   -0.9962    0.0000 N.pl3     1 <0>        0.00000
      8 N2         -3.1641   -0.3831    0.0000 N.ar      1 <0>        0.00000
      9 N3         -1.1439   -1.0732    0.0000 N.am      1 <0>        0.00000
     10 C7         -0.4294   -0.6607    0.0000 C.2       1 <0>        0.00000
     11 C8          0.2851   -1.0732    0.0000 C.3       1 <0>        0.00000
     12 C9          0.9995   -0.6607    0.0000 C.ar      1 <0>        0.00000
     13 C10         1.7140   -1.0732    0.0000 C.ar      1 <0>        0.00000
     14 C11         2.4285   -0.6607    0.0000 C.ar      1 <0>        0.00000
     15 C12         2.4285    0.1643    0.0000 C.ar      1 <0>        0.00000
     16 C13         1.7140    0.5768    0.0000 C.ar      1 <0>        0.00000
     17 C14         0.9995    0.1643    0.0000 C.ar      1 <0>        0.00000
     18 C15         3.1429    0.5768    0.0000 C.ar      1 <0>        0.00000
     19 C16         3.1429   -1.0732    0.0000 C.ar      1 <0>        0.00000
     20 C17         3.8574   -0.6607    0.0000 C.ar      1 <0>        0.00000
     21 C18         3.8574    0.1643    0.0000 C.ar      1 <0>        0.00000
     22 O1         -0.4294    0.1643    0.0000 O.2       1 <0>        0.00000
     23 H1         -3.7546    1.5699    0.0000 H         1 <0>        0.00000
     24 H2         -3.7546    1.5699    0.0000 H         1 <0>        0.00000
     25 H3         -3.0009    1.9055    0.0000 H         1 <0>        0.00000
     26 H4         -3.0009    1.9055    0.0000 H         1 <0>        0.00000
     27 H5         -3.0871    1.0850    0.0000 H         1 <0>        0.00000
     28 H6         -1.9446    0.1598    0.0000 H         1 <0>        0.00000
     29 H7         -2.6120   -0.9962    0.0000 H         1 <0>        0.00000
     30 H8         -1.1439   -1.0732    0.0000 H         1 <0>        0.00000
     31 H9          0.2851   -1.0732    0.0000 H         1 <0>        0.00000
     32 H10         0.2851   -1.0732    0.0000 H         1 <0>        0.00000
     33 H11         1.7140   -1.0732    0.0000 H         1 <0>        0.00000
     34 H12         1.7140    0.5768    0.0000 H         1 <0>        0.00000
     35 H13         0.9995    0.1643    0.0000 H         1 <0>        0.00000
     36 H14         3.1429    0.5768    0.0000 H         1 <0>        0.00000
     37 H15         3.1429   -1.0732    0.0000 H         1 <0>        0.00000
     38 H16         3.8574   -0.6607    0.0000 H         1 <0>        0.00000
     39 H17         3.8574    0.1643    0.0000 H         1 <0>        0.00000
@<TRIPOS>BOND
     1    1    2 1
     2    1    3 1
     3    2    3 1
     4    3    4 1
     5    4    5 1
     6    4    8 2
     7    5    6 2
     8    6    7 1
     9    6    9 1
    10    7    8 1
    11    9   10 am
    12   10   11 1
    13   10   22 2
    14   11   12 1
    15   12   13 ar
    16   12   17 ar
    17   13   14 ar
    18   14   15 ar
    19   14   19 ar
    20   15   16 ar
    21   15   18 ar
    22   16   17 ar
    23   18   21 ar
    24   19   20 ar
    25   20   21 ar
    26    1   23 1
    27    1   24 1
    28    2   25 1
    29    2   26 1
    30    3   27 1
    31    5   28 1
    32    7   29 1
    33    9   30 1
    34   11   31 1
    35   11   32 1
    36   13   33 1
    37   16   34 1
    38   17   35 1
    39   18   36 1
    40   19   37 1
    41   20   38 1
    42   21   39 1
@<TRIPOS>SUBSTRUCTURE
     1 <0>         1 GROUP 0 A     ****
@<TRIPOS>MOLECULE
*****
   52    55     1     0     0
SMALL
NO_CHARGES

@<TRIPOS>ATOM
      1 C1          1.8036   -0.1138    0.0000 C.3       1 <0>        0.00000
      2 C2          0.3045   -1.0964    0.0000 C.3       1 <0>        0.00000
      3 C3          1.8036    1.2211    0.0000 C.3       1 <0>        0.00000
      4 C4          0.3045    1.3786    0.0000 C.3       1 <0>        0.00000
      5 C5          2.2885    0.5536    0.0000 C.3       1 <0>        0.00000
      6 C6         -1.1245   -0.2714    0.0000 C.3       1 <0>        0.00000
      7 C7         -0.4100    0.9661    0.0000 C.2       1 <0>        0.00000
      8 C8         -0.4100   -1.5089    0.0000 C.3       1 <0>        0.00000
      9 C9         -1.1245   -1.0964    0.0000 C.2       1 <0>        0.00000
     10 C10        -1.8390    0.1411    0.0000 C.3       1 <0>        0.00000
     11 C11        -1.8390   -1.5089    0.0000 C.2       1 <0>        0.00000
     12 C12        -2.5534   -0.2714    0.0000 C.3       1 <0>        0.00000
     13 C13         0.3045   -0.2714    0.0000 C.3       1 <0>        0.00000
     14 H1          0.3045    0.5536    0.0000 H         1 <0>        0.00000
     15 C14        -0.4100    0.1411    0.0000 C.3       1 <0>        0.00000
     16 H2         -0.4100   -0.6839    0.0000 H         1 <0>        0.00000
     17 C15         1.0189    0.9661    0.0000 C.3       1 <0>        0.00000
     18 C16         1.0189    1.7911    0.0000 C.3       1 <0>        0.00000
     19 C17         1.0189    0.1411    0.0000 C.3       1 <0>        0.00000
     20 H3          1.0189   -0.6839    0.0000 H         1 <0>        0.00000
     21 O1         -3.2679   -1.5089    0.0000 O.2       1 <0>        0.00000
     22 C18        -2.5534   -1.0964    0.0000 C.2       1 <0>        0.00000
     23 H4         -1.1245    0.5536    0.0000 H         1 <0>        0.00000
     24 C19         2.5181    1.6336    0.0000 C.1       1 <0>        0.00000
     25 O2          1.8036    2.0461    0.0000 O.3       1 <0>        0.00000
     26 C20         0.3044    2.2036    0.0000 C.3       1 <0>        0.00000
     27 C21         3.2325    2.0461    0.0000 C.1       1 <0>        0.00000
     28 C22        -1.1245    1.3786    0.0000 C.2       1 <0>        0.00000
     29 H5          1.8036   -0.1138    0.0000 H         1 <0>        0.00000
     30 H6          1.8036   -0.1138    0.0000 H         1 <0>        0.00000
     31 H7          0.3045   -1.0964    0.0000 H         1 <0>        0.00000
     32 H8          0.3045   -1.0964    0.0000 H         1 <0>        0.00000
     33 H9          0.3045    1.3786    0.0000 H         1 <0>        0.00000
     34 H10         0.3045    1.3786    0.0000 H         1 <0>        0.00000
     35 H11         2.2885    0.5536    0.0000 H         1 <0>        0.00000
     36 H12         2.2885    0.5536    0.0000 H         1 <0>        0.00000
     37 H13        -0.4100   -1.5089    0.0000 H         1 <0>        0.00000
     38 H14        -0.4100   -1.5089    0.0000 H         1 <0>        0.00000
     39 H15        -1.8390    0.1411    0.0000 H         1 <0>        0.00000
     40 H16        -1.8390    0.1411    0.0000 H         1 <0>        0.00000
     41 H17        -1.8390   -1.5089    0.0000 H         1 <0>        0.00000
     42 H18        -2.5534   -0.2714    0.0000 H         1 <0>        0.00000
     43 H19        -2.5534   -0.2714    0.0000 H         1 <0>        0.00000
     44 H20         1.0189    1.7911    0.0000 H         1 <0>        0.00000
     45 H21         1.0189    1.7911    0.0000 H         1 <0>        0.00000
     46 H22         1.8036    2.0461    0.0000 H         1 <0>        0.00000
     47 H23         0.3044    2.2036    0.0000 H         1 <0>        0.00000
     48 H24         0.3044    2.2036    0.0000 H         1 <0>        0.00000
     49 H25         0.3044    2.2036    0.0000 H         1 <0>        0.00000
     50 H26         3.2325    2.0461    0.0000 H         1 <0>        0.00000
     51 H27        -1.1245    1.3786    0.0000 H         1 <0>        0.00000
     52 H28        -1.1245    1.3786    0.0000 H         1 <0>        0.00000
@<TRIPOS>BOND
     1   13   19 1
     2   17   19 1
     3    1   19 1
     4   13   15 1
     5    2   13 1
     6    3   17 1
     7    4   17 1
     8    1    5 1
     9    6   15 1
    10    7   15 1
    11    2    8 1
    12    6    9 1
    13    6   10 1
    14    9   11 2
    15   10   12 1
    16   11   22 1
    17    3    5 1
    18    4    7 1
    19    8    9 1
    20   12   22 1
    21   13   14 1
    22   15   16 1
    23   17   18 1
    24   19   20 1
    25   21   22 2
    26    6   23 1
    27    3   24 1
    28    3   25 1
    29   18   26 1
    30   24   27 3
    31    7   28 2
    32    1   29 1
    33    1   30 1
    34    2   31 1
    35    2   32 1
    36    4   33 1
    37    4   34 1
    38    5   35 1
    39    5   36 1
    40    8   37 1
    41    8   38 1
    42   10   39 1
    43   10   40 1
    44   11   41 1
    45   12   42 1
    46   12   43 1
    47   18   44 1
    48   18   45 1
    49   25   46 1
    50   26   47 1
    51   26   48 1
    52   26   49 1
    53   27   50 1
    54   28   51 1
    55   28   52 1
@<TRIPOS>SUBSTRUCTURE
     1 <0>         1 GROUP 0 A     ****
@<TRIPOS>MOLECULE
TRL
   64    64     1     0     0
SMALL
NO_CHARGES

@<TRIPOS>ATOM
      1 O1         -2.7903    0.5858    0.0000 O.2       1 <0>        0.00000
      2 C1         -2.0057    0.3309    0.0000 C.2       1 <0>        0.00000
      3 C2         -1.8342   -0.4761    0.0000 C.3       1 <0>        0.00000
      4 C3         -2.4473   -1.0282    0.0000 C.3       1 <0>        0.00000
      5 C4         -3.2319   -0.7732    0.0000 C.3       1 <0>        0.00000
      6 C5         -1.0496   -0.7311    0.0000 C.3       1 <0>        0.00000
      7 N1         -0.3821   -0.2461    0.0000 N.am      1 <0>        0.00000
      8 C6          0.2853   -0.7311    0.0000 C.3       1 <0>        0.00000
      9 C7          0.0304   -1.5157    0.0000 C.3       1 <0>        0.00000
     10 C8         -0.7946   -1.5157    0.0000 C.3       1 <0>        0.00000
     11 N2         -1.2795   -2.1831    0.0000 N.pl3     1 <0>        0.00000
     12 S1         -0.9440   -2.9368    0.0000 S.o2      1 <0>        0.00000
     13 O2         -0.6084   -3.6905    0.0000 O.2       1 <0>        0.00000
     14 O3         -0.1903   -2.6012    0.0000 O.2       1 <0>        0.00000
     15 C9         -1.6977   -3.2724    0.0000 C.3       1 <0>        0.00000
     16 C10        -0.3821    0.5789    0.0000 C.2       1 <0>        0.00000
     17 O4         -1.0966    0.9914    0.0000 O.2       1 <0>        0.00000
     18 C11         0.3324    0.9914    0.0000 C.3       1 <0>        0.00000
     19 C12         0.3324    1.8164    0.0000 C.3       1 <0>        0.00000
     20 C13        -0.3821    2.2289    0.0000 C.3       1 <0>        0.00000
     21 C14         1.0468    2.2289    0.0000 C.3       1 <0>        0.00000
     22 N3          1.0468    0.5789    0.0000 N.am      1 <0>        0.00000
     23 C15         1.7613    0.9914    0.0000 C.2       1 <0>        0.00000
     24 O5          1.7613    1.8164    0.0000 O.2       1 <0>        0.00000
     25 O6          2.4758    0.5789    0.0000 O.3       1 <0>        0.00000
     26 C16         3.1902    0.9914    0.0000 C.3       1 <0>        0.00000
     27 C17         3.9047    1.4039    0.0000 C.3       1 <0>        0.00000
     28 C18         3.6027    0.2769    0.0000 C.3       1 <0>        0.00000
     29 C19         2.7777    1.7058    0.0000 C.3       1 <0>        0.00000
     30 H1         -2.3895   -0.2957    0.0000 H         1 <0>        0.00000
     31 H2         -1.1409   -0.1543    0.0000 H         1 <0>        0.00000
     32 H3         -1.3714   -1.4243    0.0000 H         1 <0>        0.00000
     33 H4         -0.2427    1.0928    0.0000 H         1 <0>        0.00000
     34 H5         -2.0057    0.3309    0.0000 H         1 <0>        0.00000
     35 H6         -2.4473   -1.0282    0.0000 H         1 <0>        0.00000
     36 H7         -2.4473   -1.0282    0.0000 H         1 <0>        0.00000
     37 H8         -3.2319   -0.7732    0.0000 H         1 <0>        0.00000
     38 H9         -3.2319   -0.7732    0.0000 H         1 <0>        0.00000
     39 H10        -3.2319   -0.7732    0.0000 H         1 <0>        0.00000
     40 H11         0.2853   -0.7311    0.0000 H         1 <0>        0.00000
     41 H12         0.2853   -0.7311    0.0000 H         1 <0>        0.00000
     42 H13         0.0304   -1.5157    0.0000 H         1 <0>        0.00000
     43 H14         0.0304   -1.5157    0.0000 H         1 <0>        0.00000
     44 H15        -1.2795   -2.1831    0.0000 H         1 <0>        0.00000
     45 H16        -1.6977   -3.2724    0.0000 H         1 <0>        0.00000
     46 H17        -1.6977   -3.2724    0.0000 H         1 <0>        0.00000
     47 H18        -1.6977   -3.2724    0.0000 H         1 <0>        0.00000
     48 H19         0.3324    1.8164    0.0000 H         1 <0>        0.00000
     49 H20        -0.3821    2.2289    0.0000 H         1 <0>        0.00000
     50 H21        -0.3821    2.2289    0.0000 H         1 <0>        0.00000
     51 H22        -0.3821    2.2289    0.0000 H         1 <0>        0.00000
     52 H23         1.0468    2.2289    0.0000 H         1 <0>        0.00000
     53 H24         1.0468    2.2289    0.0000 H         1 <0>        0.00000
     54 H25         1.0468    2.2289    0.0000 H         1 <0>        0.00000
     55 H26         1.0468    0.5789    0.0000 H         1 <0>        0.00000
     56 H27         3.9047    1.4039    0.0000 H         1 <0>        0.00000
     57 H28         3.9047    1.4039    0.0000 H         1 <0>        0.00000
     58 H29         3.9047    1.4039    0.0000 H         1 <0>        0.00000
     59 H30         3.6027    0.2769    0.0000 H         1 <0>        0.00000
     60 H31         3.6027    0.2769    0.0000 H         1 <0>        0.00000
     61 H32         3.6027    0.2769    0.0000 H         1 <0>        0.00000
     62 H33         2.7777    1.7058    0.0000 H         1 <0>        0.00000
     63 H34         2.7777    1.7058    0.0000 H         1 <0>        0.00000
     64 H35         2.7777    1.7058    0.0000 H         1 <0>        0.00000
@<TRIPOS>BOND
     1    1    2 2
     2    2    3 1
     3    3    4 1
     4    3    6 1
     5    3   30 1
     6    4    5 1
     7    6    7 1
     8    6   10 1
     9    6   31 1
    10    7    8 1
    11    7   16 am
    12    8    9 1
    13    9   10 1
    14   10   11 1
    15   10   32 1
    16   11   12 1
    17   12   13 2
    18   12   14 2
    19   12   15 1
    20   16   17 2
    21   16   18 1
    22   18   19 1
    23   18   22 1
    24   18   33 1
    25   19   20 1
    26   19   21 1
    27   22   23 am
    28   23   24 2
    29   23   25 1
    30   25   26 1
    31   26   27 1
    32   26   28 1
    33   26   29 1
    34    2   34 1
    35    4   35 1
    36    4   36 1
    37    5   37 1
    38    5   38 1
    39    5   39 1
    40    8   40 1
    41    8   41 1
    42    9   42 1
    43    9   43 1
    44   11   44 1
    45   15   45 1
    46   15   46 1
    47   15   47 1
    48   19   48 1
    49   20   49 1
    50   20   50 1
    51   20   51 1
    52   21   52 1
    53   21   53 1
    54   21   54 1
    55   22   55 1
    56   27   56 1
    57   27   57 1
    58   27   58 1
    59   28   59 1
    60   28   60 1
    61   28   61 1
    62   29   62 1
    63   29   63 1
    64   29   64 1
@<TRIPOS>SUBSTRUCTURE
     1 <0>         1 GROUP 0 A     ****
@<TRIPOS>MOLECULE
528
   66    67     1     0     0
SMALL
NO_CHARGES

@<TRIPOS>ATOM
      1 C1         -4.9492    1.1198    0.0000 C.ar      1 <0>        0.00000
      2 C2         -5.6952    0.7674    0.0000 C.ar      1 <0>        0.00000
      3 C3         -5.7630   -0.0548    0.0000 C.ar      1 <0>        0.00000
      4 C4         -5.0848   -0.5246    0.0000 C.ar      1 <0>        0.00000
      5 C5         -4.3389   -0.1723    0.0000 C.ar      1 <0>        0.00000
      6 C6         -4.2711    0.6500    0.0000 C.ar      1 <0>        0.00000
      7 C7         -3.5251    1.0023    0.0000 C.3       1 <0>        0.00000
      8 C8         -2.8470    0.5325    0.0000 C.3       1 <0>        0.00000
      9 C9         -2.1010    0.8849    0.0000 C.3       1 <0>        0.00000
     10 S1         -1.4229    0.4150    0.0000 S.o2      1 <0>        0.00000
     11 O1         -1.8927   -0.2631    0.0000 O.2       1 <0>        0.00000
     12 O2         -0.9530    1.0932    0.0000 O.2       1 <0>        0.00000
     13 N1         -0.7447   -0.0548    0.0000 N.pl3     1 <0>        0.00000
     14 C10         0.0013    0.2976    0.0000 C.3       1 <0>        0.00000
     15 C11         0.0691    1.1198    0.0000 C.3       1 <0>        0.00000
     16 C12         0.8150    1.4722    0.0000 C.3       1 <0>        0.00000
     17 C13        -0.6091    1.5896    0.0000 C.3       1 <0>        0.00000
     18 P1          0.6794   -0.1723    0.0000 P.3       1 <0>        0.00000
     19 O3          0.2096   -0.8504    0.0000 O.2       1 <0>        0.00000
     20 O4          1.1492    0.5059    0.0000 O.3       1 <0>        0.00000
     21 C14         1.3575   -0.6421    0.0000 C.3       1 <0>        0.00000
     22 C15         2.1035   -0.2897    0.0000 C.3       1 <0>        0.00000
     23 C16         2.1713    0.5325    0.0000 C.2       1 <0>        0.00000
     24 O5          1.4932    1.0023    0.0000 O.2       1 <0>        0.00000
     25 O6          2.9173    0.8849    0.0000 O.3       1 <0>        0.00000
     26 C17         2.7816   -0.7595    0.0000 C.ar      1 <0>        0.00000
     27 C18         3.5276   -0.4072    0.0000 C.ar      1 <0>        0.00000
     28 C19         2.7138   -1.5818    0.0000 C.ar      1 <0>        0.00000
     29 C20         3.3920   -2.0516    0.0000 C.ar      1 <0>        0.00000
     30 C21         4.1379   -1.6992    0.0000 C.ar      1 <0>        0.00000
     31 C22         4.2058   -0.8770    0.0000 C.ar      1 <0>        0.00000
     32 C23         4.9517   -0.5246    0.0000 C.3       1 <0>        0.00000
     33 N2          5.0195    0.2976    0.0000 N.3       1 <0>        0.00000
     34 H1         -0.4787    0.6301    0.0000 H         1 <0>        0.00000
     35 H2          2.0555   -0.8717    0.0000 H         1 <0>        0.00000
     36 H3         -4.9492    1.1198    0.0000 H         1 <0>        0.00000
     37 H4         -5.6952    0.7674    0.0000 H         1 <0>        0.00000
     38 H5         -5.7630   -0.0548    0.0000 H         1 <0>        0.00000
     39 H6         -5.0848   -0.5246    0.0000 H         1 <0>        0.00000
     40 H7         -4.3389   -0.1723    0.0000 H         1 <0>        0.00000
     41 H8         -3.5251    1.0023    0.0000 H         1 <0>        0.00000
     42 H9         -3.5251    1.0023    0.0000 H         1 <0>        0.00000
     43 H10        -2.8470    0.5325    0.0000 H         1 <0>        0.00000
     44 H11        -2.8470    0.5325    0.0000 H         1 <0>        0.00000
     45 H12        -2.1010    0.8849    0.0000 H         1 <0>        0.00000
     46 H13        -2.1010    0.8849    0.0000 H         1 <0>        0.00000
     47 H14        -0.7447   -0.0548    0.0000 H         1 <0>        0.00000
     48 H15         0.0691    1.1198    0.0000 H         1 <0>        0.00000
     49 H16         0.8150    1.4722    0.0000 H         1 <0>        0.00000
     50 H17         0.8150    1.4722    0.0000 H         1 <0>        0.00000
     51 H18         0.8150    1.4722    0.0000 H         1 <0>        0.00000
     52 H19        -0.6091    1.5896    0.0000 H         1 <0>        0.00000
     53 H20        -0.6091    1.5896    0.0000 H         1 <0>        0.00000
     54 H21        -0.6091    1.5896    0.0000 H         1 <0>        0.00000
     55 H22         1.1492    0.5059    0.0000 H         1 <0>        0.00000
     56 H23         1.3575   -0.6421    0.0000 H         1 <0>        0.00000
     57 H24         1.3575   -0.6421    0.0000 H         1 <0>        0.00000
     58 H25         2.9173    0.8849    0.0000 H         1 <0>        0.00000
     59 H26         3.5276   -0.4072    0.0000 H         1 <0>        0.00000
     60 H27         2.7138   -1.5818    0.0000 H         1 <0>        0.00000
     61 H28         3.3920   -2.0516    0.0000 H         1 <0>        0.00000
     62 H29         4.1379   -1.6992    0.0000 H         1 <0>        0.00000
     63 H30         4.9517   -0.5246    0.0000 H         1 <0>        0.00000
     64 H31         4.9517   -0.5246    0.0000 H         1 <0>        0.00000
     65 H32         5.0195    0.2976    0.0000 H         1 <0>        0.00000
     66 H33         5.0195    0.2976    0.0000 H         1 <0>        0.00000
@<TRIPOS>BOND
     1    1    6 ar
     2    1    2 ar
     3    2    3 ar
     4    3    4 ar
     5    4    5 ar
     6    5    6 ar
     7    6    7 1
     8    7    8 1
     9    8    9 1
    10    9   10 1
    11   10   13 1
    12   10   11 2
    13   10   12 2
    14   13   14 1
    15   14   15 1
    16   14   18 1
    17   14   34 1
    18   15   16 1
    19   15   17 1
    20   18   19 2
    21   18   21 1
    22   18   20 1
    23   21   22 1
    24   22   26 1
    25   22   23 1
    26   22   35 1
    27   23   24 2
    28   23   25 1
    29   26   27 ar
    30   26   28 ar
    31   27   31 ar
    32   28   29 ar
    33   29   30 ar
    34   30   31 ar
    35   31   32 1
    36   32   33 1
    37    1   36 1
    38    2   37 1
    39    3   38 1
    40    4   39 1
    41    5   40 1
    42    7   41 1
    43    7   42 1
    44    8   43 1
    45    8   44 1
    46    9   45 1
    47    9   46 1
    48   13   47 1
    49   15   48 1
    50   16   49 1
    51   16   50 1
    52   16   51 1
    53   17   52 1
    54   17   53 1
    55   17   54 1
    56   20   55 1
    57   21   56 1
    58   21   57 1
    59   25   58 1
    60   27   59 1
    61   28   60 1
    62   29   61 1
    63   30   62 1
    64   32   63 1
    65   32   64 1
    66   33   65 1
    67   33   66 1
@<TRIPOS>SUBSTRUCTURE
     1 <0>         1 GROUP 0 A     ****
@<TRIPOS>MOLECULE
N5B
   30    32     1     0     0
SMALL
NO_CHARGES

@<TRIPOS>ATOM
      1 C1          1.1651   -1.2417    0.0000 C.ar      1 <0>        0.00000
      2 C2          1.1651   -2.0667    0.0000 C.3       1 <0>        0.00000
      3 C3          0.4977   -0.7568    0.0000 C.ar      1 <0>        0.00000
      4 N1          1.8326   -0.7568    0.0000 N.ar      1 <0>        0.00000
      5 C4          1.5776   -2.7812    0.0000 C.3       1 <0>        0.00000
      6 C5          0.7526   -2.7812    0.0000 C.3       1 <0>        0.00000
      7 C6          0.7526    0.0278    0.0000 C.ar      1 <0>        0.00000
      8 N2          1.5776    0.0278    0.0000 N.pl3     1 <0>        0.00000
      9 N3          0.2677    0.6953    0.0000 N.am      1 <0>        0.00000
     10 C7         -0.5528    0.6090    0.0000 C.2       1 <0>        0.00000
     11 C8         -1.0377    1.2765    0.0000 C.ar      1 <0>        0.00000
     12 O1         -0.8883   -0.1446    0.0000 O.2       1 <0>        0.00000
     13 C9         -1.8582    1.1902    0.0000 C.ar      1 <0>        0.00000
     14 C10        -0.7021    2.0302    0.0000 C.ar      1 <0>        0.00000
     15 C11        -2.3431    1.8577    0.0000 C.ar      1 <0>        0.00000
     16 C12        -1.1871    2.6976    0.0000 C.ar      1 <0>        0.00000
     17 C13        -2.0075    2.6114    0.0000 C.ar      1 <0>        0.00000
     18 H1          1.1651   -2.0667    0.0000 H         1 <0>        0.00000
     19 H2          0.4977   -0.7568    0.0000 H         1 <0>        0.00000
     20 H3          1.5776   -2.7812    0.0000 H         1 <0>        0.00000
     21 H4          1.5776   -2.7812    0.0000 H         1 <0>        0.00000
     22 H5          0.7526   -2.7812    0.0000 H         1 <0>        0.00000
     23 H6          0.7526   -2.7812    0.0000 H         1 <0>        0.00000
     24 H7          1.5776    0.0278    0.0000 H         1 <0>        0.00000
     25 H8          0.2677    0.6953    0.0000 H         1 <0>        0.00000
     26 H9         -1.8582    1.1902    0.0000 H         1 <0>        0.00000
     27 H10        -0.7021    2.0302    0.0000 H         1 <0>        0.00000
     28 H11        -2.3431    1.8577    0.0000 H         1 <0>        0.00000
     29 H12        -1.1871    2.6976    0.0000 H         1 <0>        0.00000
     30 H13        -2.0075    2.6114    0.0000 H         1 <0>        0.00000
@<TRIPOS>BOND
     1    1    2 1
     2    1    3 1
     3    1    4 2
     4    2    5 1
     5    2    6 1
     6    3    7 2
     7    4    8 1
     8    5    6 1
     9    7    8 1
    10    7    9 1
    11    9   10 am
    12   10   11 1
    13   10   12 2
    14   11   13 ar
    15   11   14 ar
    16   13   15 ar
    17   14   16 ar
    18   15   17 ar
    19   16   17 ar
    20    2   18 1
    21    3   19 1
    22    5   20 1
    23    5   21 1
    24    6   22 1
    25    6   23 1
    26    8   24 1
    27    9   25 1
    28   13   26 1
    29   14   27 1
    30   15   28 1
    31   16   29 1
    32   17   30 1
@<TRIPOS>SUBSTRUCTURE
     1 <0>         1 GROUP 0 A     ****
@<TRIPOS>MOLECULE
MN8
   39    41     1     0     0
SMALL
NO_CHARGES

@<TRIPOS>ATOM
      1 C1         -2.4092    0.0725    0.0000 C.2       1 <0>        0.00000
      2 O1         -2.8942    0.7399    0.0000 O.2       1 <0>        0.00000
      3 O2         -2.7448   -0.6812    0.0000 O.3       1 <0>        0.00000
      4 C2         -1.5888    0.1587    0.0000 C.ar      1 <0>        0.00000
      5 C3         -1.1763    0.8732    0.0000 C.ar      1 <0>        0.00000
      6 C4         -1.5118    1.6269    0.0000 C.3       1 <0>        0.00000
      7 C5         -1.0269    2.2943    0.0000 C.3       1 <0>        0.00000
      8 C6         -2.3323    1.7131    0.0000 C.3       1 <0>        0.00000
      9 S1         -0.3693    0.7017    0.0000 S.3       1 <0>        0.00000
     10 C7         -0.2831   -0.1188    0.0000 C.ar      1 <0>        0.00000
     11 N1         -1.0367   -0.4544    0.0000 N.ar      1 <0>        0.00000
     12 C8          0.4314   -0.5313    0.0000 C.3       1 <0>        0.00000
     13 N2          0.4314   -1.3563    0.0000 N.3       1 <0>        0.00000
     14 C9          1.1459   -1.7688    0.0000 C.3       1 <0>        0.00000
     15 C10         1.8604   -1.3563    0.0000 C.ar      1 <0>        0.00000
     16 C11         1.8604   -0.5313    0.0000 C.ar      1 <0>        0.00000
     17 C12         1.1459   -0.1188    0.0000 C.3       1 <0>        0.00000
     18 C13         2.5748   -0.1188    0.0000 C.ar      1 <0>        0.00000
     19 C14         3.2893   -0.5313    0.0000 C.ar      1 <0>        0.00000
     20 C15         3.2893   -1.3563    0.0000 C.ar      1 <0>        0.00000
     21 C16         2.5748   -1.7688    0.0000 C.ar      1 <0>        0.00000
     22 H1         -0.0743   -0.8233    0.0000 H         1 <0>        0.00000
     23 H2         -2.7448   -0.6812    0.0000 H         1 <0>        0.00000
     24 H3         -1.5118    1.6269    0.0000 H         1 <0>        0.00000
     25 H4         -1.0269    2.2943    0.0000 H         1 <0>        0.00000
     26 H5         -1.0269    2.2943    0.0000 H         1 <0>        0.00000
     27 H6         -1.0269    2.2943    0.0000 H         1 <0>        0.00000
     28 H7         -2.3323    1.7131    0.0000 H         1 <0>        0.00000
     29 H8         -2.3323    1.7131    0.0000 H         1 <0>        0.00000
     30 H9         -2.3323    1.7131    0.0000 H         1 <0>        0.00000
     31 H10         0.4314   -1.3563    0.0000 H         1 <0>        0.00000
     32 H11         1.1459   -1.7688    0.0000 H         1 <0>        0.00000
     33 H12         1.1459   -1.7688    0.0000 H         1 <0>        0.00000
     34 H13         1.1459   -0.1188    0.0000 H         1 <0>        0.00000
     35 H14         1.1459   -0.1188    0.0000 H         1 <0>        0.00000
     36 H15         2.5748   -0.1188    0.0000 H         1 <0>        0.00000
     37 H16         3.2893   -0.5313    0.0000 H         1 <0>        0.00000
     38 H17         3.2893   -1.3563    0.0000 H         1 <0>        0.00000
     39 H18         2.5748   -1.7688    0.0000 H         1 <0>        0.00000
@<TRIPOS>BOND
     1    1    2 2
     2    1    3 1
     3    1    4 1
     4    4    5 2
     5    4   11 1
     6    5    6 1
     7    5    9 1
     8    6    7 1
     9    6    8 1
    10    9   10 1
    11   10   11 2
    12   10   12 1
    13   12   13 1
    14   12   17 1
    15   12   22 1
    16   13   14 1
    17   14   15 1
    18   15   16 ar
    19   15   21 ar
    20   16   17 1
    21   16   18 ar
    22   18   19 ar
    23   19   20 ar
    24   20   21 ar
    25    3   23 1
    26    6   24 1
    27    7   25 1
    28    7   26 1
    29    7   27 1
    30    8   28 1
    31    8   29 1
    32    8   30 1
    33   13   31 1
    34   14   32 1
    35   14   33 1
    36   17   34 1
    37   17   35 1
    38   18   36 1
    39   19   37 1
    40   20   38 1
    41   21   39 1
@<TRIPOS>SUBSTRUCTURE
     1 <0>         1 GROUP 0 A     ****
@<TRIPOS>MOLECULE
*****
   39    40     1     0     0
SMALL
NO_CHARGES

@<TRIPOS>ATOM
      1 C1         -0.9162    3.5328    0.0000 C.3       1 <0>        0.00000
      2 C2         -0.1410    3.8150    0.0000 C.ar      1 <0>        0.00000
      3 N1          0.0023    4.6274    0.0000 N.ar      1 <0>        0.00000
      4 C3          0.7775    4.9096    0.0000 C.ar      1 <0>        0.00000
      5 C4          1.4095    4.3793    0.0000 C.ar      1 <0>        0.00000
      6 C5          2.1848    4.6615    0.0000 C.3       1 <0>        0.00000
      7 O1          2.3280    5.4739    0.0000 O.3       1 <0>        0.00000
      8 P1          3.1033    5.7561    0.0000 P.3       1 <0>        0.00000
      9 O2          3.8785    6.0383    0.0000 O.3       1 <0>        0.00000
     10 O3          2.8211    6.5314    0.0000 O.3       1 <0>        0.00000
     11 O4          3.3854    4.9809    0.0000 O.2       1 <0>        0.00000
     12 C6          1.2663    3.5668    0.0000 C.ar      1 <0>        0.00000
     13 C7          1.8982    3.0365    0.0000 C.3       1 <0>        0.00000
     14 N2          2.6735    3.3187    0.0000 N.3       1 <0>        0.00000
     15 C8          3.3055    2.7884    0.0000 C.3       1 <0>        0.00000
     16 C9          3.7180    2.0739    0.0000 C.3       1 <0>        0.00000
     17 C10         2.8930    2.0739    0.0000 C.3       1 <0>        0.00000
     18 C11         3.9375    3.3187    0.0000 C.2       1 <0>        0.00000
     19 O5          4.7127    3.0365    0.0000 O.3       1 <0>        0.00000
     20 O6          3.7942    4.1312    0.0000 O.2       1 <0>        0.00000
     21 C12         0.4910    3.2847    0.0000 C.ar      1 <0>        0.00000
     22 O7          0.3477    2.4722    0.0000 O.3       1 <0>        0.00000
     23 H1         -0.9162    3.5328    0.0000 H         1 <0>        0.00000
     24 H2         -0.9162    3.5328    0.0000 H         1 <0>        0.00000
     25 H3         -0.9162    3.5328    0.0000 H         1 <0>        0.00000
     26 H4          0.7775    4.9096    0.0000 H         1 <0>        0.00000
     27 H5          2.1848    4.6615    0.0000 H         1 <0>        0.00000
     28 H6          2.1848    4.6615    0.0000 H         1 <0>        0.00000
     29 H7          3.8785    6.0383    0.0000 H         1 <0>        0.00000
     30 H8          2.8211    6.5314    0.0000 H         1 <0>        0.00000
     31 H9          1.8982    3.0365    0.0000 H         1 <0>        0.00000
     32 H10         1.8982    3.0365    0.0000 H         1 <0>        0.00000
     33 H11         2.6735    3.3187    0.0000 H         1 <0>        0.00000
     34 H12         3.7180    2.0739    0.0000 H         1 <0>        0.00000
     35 H13         3.7180    2.0739    0.0000 H         1 <0>        0.00000
     36 H14         2.8930    2.0739    0.0000 H         1 <0>        0.00000
     37 H15         2.8930    2.0739    0.0000 H         1 <0>        0.00000
     38 H16         4.7127    3.0365    0.0000 H         1 <0>        0.00000
     39 H17         0.3477    2.4722    0.0000 H         1 <0>        0.00000
@<TRIPOS>BOND
     1    1    2 1
     2    2    3 ar
     3    3    4 ar
     4    4    5 ar
     5    5    6 1
     6    6    7 1
     7    7    8 1
     8    8    9 1
     9    8   10 1
    10    8   11 2
    11    5   12 ar
    12   12   13 1
    13   13   14 1
    14   14   15 1
    15   15   16 1
    16   16   17 1
    17   15   17 1
    18   15   18 1
    19   18   19 1
    20   18   20 2
    21   12   21 ar
    22    2   21 ar
    23   21   22 1
    24    1   23 1
    25    1   24 1
    26    1   25 1
    27    4   26 1
    28    6   27 1
    29    6   28 1
    30    9   29 1
    31   10   30 1
    32   13   31 1
    33   13   32 1
    34   14   33 1
    35   16   34 1
    36   16   35 1
    37   17   36 1
    38   17   37 1
    39   19   38 1
    40   22   39 1
@<TRIPOS>SUBSTRUCTURE
     1 <0>         1 GROUP 0 A     ****
@<TRIPOS>MOLECULE
948
   61    64     1     0     0
SMALL
NO_CHARGES

@<TRIPOS>ATOM
      1 S1          7.6202   -0.9711    0.0000 S.3       1 <0>        0.00000
      2 S2          5.2617    3.5480    0.0000 S.o2      1 <0>        0.00000
      3 O1          5.4215   -2.6390    0.0000 O.2       1 <0>        0.00000
      4 O2          7.3231   -3.7037    0.0000 O.3       1 <0>        0.00000
      5 O3          8.6820   -3.2622    0.0000 O.2       1 <0>        0.00000
      6 O4          4.4090   -1.6464    0.0000 O.2       1 <0>        0.00000
      7 O5          2.8777    0.9037    0.0000 O.2       1 <0>        0.00000
      8 O6          5.3520    1.7554    0.0000 O.2       1 <0>        0.00000
      9 O7          5.7796    2.9058    0.0000 O.2       1 <0>        0.00000
     10 O8          4.7439    4.1902    0.0000 O.2       1 <0>        0.00000
     11 N1          6.8355   -2.0510    0.0000 N.am      1 <0>        0.00000
     12 N2          5.4215   -0.6381    0.0000 N.am      1 <0>        0.00000
     13 N3          4.2572    0.5311    0.0000 N.am      1 <0>        0.00000
     14 N4          3.8902    1.9121    0.0000 N.am      1 <0>        0.00000
     15 N5          4.6195    3.0301    0.0000 N.am      1 <0>        0.00000
     16 C1          6.8355   -1.2260    0.0000 C.3       1 <0>        0.00000
     17 C2          8.1050   -1.6385    0.0000 C.3       1 <0>        0.00000
     18 C3          7.6202   -2.3060    0.0000 C.3       1 <0>        0.00000
     19 C4          6.0037   -1.2227    0.0000 C.3       1 <0>        0.00000
     20 C5          6.0037   -2.0545    0.0000 C.2       1 <0>        0.00000
     21 C6          8.7725   -1.1536    0.0000 C.3       1 <0>        0.00000
     22 C7          8.7725   -2.1235    0.0000 C.3       1 <0>        0.00000
     23 C8          7.8751   -3.0906    0.0000 C.2       1 <0>        0.00000
     24 C9          4.6242   -0.8500    0.0000 C.2       1 <0>        0.00000
     25 C10         4.0420   -0.2654    0.0000 C.3       1 <0>        0.00000
     26 C11         3.2447   -0.4773    0.0000 C.ar      1 <0>        0.00000
     27 C12         3.6750    1.1157    0.0000 C.2       1 <0>        0.00000
     28 C13         3.3723    2.5543    0.0000 C.3       1 <0>        0.00000
     29 C14         3.8231    3.2452    0.0000 C.3       1 <0>        0.00000
     30 C15         4.6610    2.2061    0.0000 C.2       1 <0>        0.00000
     31 C16         3.0295   -1.2737    0.0000 C.ar      1 <0>        0.00000
     32 C17         2.6625    0.1073    0.0000 C.ar      1 <0>        0.00000
     33 C18         2.2322   -1.4857    0.0000 C.ar      1 <0>        0.00000
     34 C19         1.8652   -0.1046    0.0000 C.ar      1 <0>        0.00000
     35 C20         5.9039    4.0659    0.0000 C.3       1 <0>        0.00000
     36 C21         1.6500   -0.9011    0.0000 C.ar      1 <0>        0.00000
     37 H1          6.7336   -0.5740    0.0000 H         1 <0>        0.00000
     38 H2          7.3231   -3.7037    0.0000 H         1 <0>        0.00000
     39 H3          5.4215   -0.6381    0.0000 H         1 <0>        0.00000
     40 H4          4.2572    0.5311    0.0000 H         1 <0>        0.00000
     41 H5          7.6202   -2.3060    0.0000 H         1 <0>        0.00000
     42 H6          6.0037   -1.2227    0.0000 H         1 <0>        0.00000
     43 H7          8.7725   -1.1536    0.0000 H         1 <0>        0.00000
     44 H8          8.7725   -1.1536    0.0000 H         1 <0>        0.00000
     45 H9          8.7725   -1.1536    0.0000 H         1 <0>        0.00000
     46 H10         8.7725   -2.1235    0.0000 H         1 <0>        0.00000
     47 H11         8.7725   -2.1235    0.0000 H         1 <0>        0.00000
     48 H12         8.7725   -2.1235    0.0000 H         1 <0>        0.00000
     49 H13         4.0420   -0.2654    0.0000 H         1 <0>        0.00000
     50 H14         3.3723    2.5543    0.0000 H         1 <0>        0.00000
     51 H15         3.3723    2.5543    0.0000 H         1 <0>        0.00000
     52 H16         3.8231    3.2452    0.0000 H         1 <0>        0.00000
     53 H17         3.8231    3.2452    0.0000 H         1 <0>        0.00000
     54 H18         3.0295   -1.2737    0.0000 H         1 <0>        0.00000
     55 H19         2.6625    0.1073    0.0000 H         1 <0>        0.00000
     56 H20         2.2322   -1.4857    0.0000 H         1 <0>        0.00000
     57 H21         1.8652   -0.1046    0.0000 H         1 <0>        0.00000
     58 H22         5.9039    4.0659    0.0000 H         1 <0>        0.00000
     59 H23         5.9039    4.0659    0.0000 H         1 <0>        0.00000
     60 H24         5.9039    4.0659    0.0000 H         1 <0>        0.00000
     61 H25         1.6500   -0.9011    0.0000 H         1 <0>        0.00000
@<TRIPOS>BOND
     1    1   16 1
     2    1   17 1
     3    2    9 2
     4    2   10 2
     5    2   15 1
     6    2   35 1
     7    3   20 2
     8    4   23 1
     9    5   23 2
    10    6   24 2
    11    7   27 2
    12    8   30 2
    13   11   16 1
    14   11   18 1
    15   11   20 am
    16   12   19 1
    17   12   24 am
    18   13   25 1
    19   13   27 am
    20   14   27 am
    21   14   28 1
    22   14   30 am
    23   15   29 1
    24   15   30 am
    25   16   19 1
    26   16   37 1
    27   17   18 1
    28   17   21 1
    29   17   22 1
    30   18   23 1
    31   19   20 1
    32   24   25 1
    33   25   26 1
    34   26   31 ar
    35   26   32 ar
    36   28   29 1
    37   31   33 ar
    38   32   34 ar
    39   33   36 ar
    40   34   36 ar
    41    4   38 1
    42   12   39 1
    43   13   40 1
    44   18   41 1
    45   19   42 1
    46   21   43 1
    47   21   44 1
    48   21   45 1
    49   22   46 1
    50   22   47 1
    51   22   48 1
    52   25   49 1
    53   28   50 1
    54   28   51 1
    55   29   52 1
    56   29   53 1
    57   31   54 1
    58   32   55 1
    59   33   56 1
    60   34   57 1
    61   35   58 1
    62   35   59 1
    63   35   60 1
    64   36   61 1
@<TRIPOS>SUBSTRUCTURE
     1 <0>         1 GROUP 0 A     ****
@<TRIPOS>MOLECULE
*****
   33    33     1     0     0
SMALL
NO_CHARGES

@<TRIPOS>ATOM
      1 C1         -0.4950   -3.2926    0.0000 C.3       1 <0>        0.00000
      2 C2          0.0884   -2.7092    0.0000 C.3       1 <0>        0.00000
      3 C3          0.6718   -3.2926    0.0000 C.3       1 <0>        0.00000
      4 N1          0.4582   -4.0895    0.0000 N.pl3     1 <0>        0.00000
      5 C4          0.9774   -4.7306    0.0000 C.ar      1 <0>        0.00000
      6 C5          0.5281   -5.4225    0.0000 C.ar      1 <0>        0.00000
      7 N2         -0.2688   -5.2090    0.0000 N.ar      1 <0>        0.00000
      8 N3         -0.3120   -4.3852    0.0000 N.ar      1 <0>        0.00000
      9 C6         -0.4950   -2.1259    0.0000 C.3       1 <0>        0.00000
     10 N4         -0.2814   -1.3290    0.0000 N.pl3     1 <0>        0.00000
     11 C7         -0.8648   -0.7456    0.0000 C.2       1 <0>        0.00000
     12 C8         -0.6513    0.0513    0.0000 C.2       1 <0>        0.00000
     13 C9         -1.2346    0.6346    0.0000 C.2       1 <0>        0.00000
     14 O1         -2.0315    0.4211    0.0000 O.2       1 <0>        0.00000
     15 C10        -1.2919   -2.3394    0.0000 C.2       1 <0>        0.00000
     16 O2         -1.5054   -3.1363    0.0000 O.3       1 <0>        0.00000
     17 O3         -1.8752   -1.7560    0.0000 O.2       1 <0>        0.00000
     18 S1          0.6718   -2.1259    0.0000 S.o2      1 <0>        0.00000
     19 O4          0.4582   -1.3290    0.0000 O.2       1 <0>        0.00000
     20 O5          1.4686   -2.3394    0.0000 O.2       1 <0>        0.00000
     21 H1         -0.4950   -3.2926    0.0000 H         1 <0>        0.00000
     22 H2         -0.4950   -3.2926    0.0000 H         1 <0>        0.00000
     23 H3         -0.4950   -3.2926    0.0000 H         1 <0>        0.00000
     24 H4          0.6718   -3.2926    0.0000 H         1 <0>        0.00000
     25 H5          0.6718   -3.2926    0.0000 H         1 <0>        0.00000
     26 H6          0.9774   -4.7306    0.0000 H         1 <0>        0.00000
     27 H7          0.5281   -5.4225    0.0000 H         1 <0>        0.00000
     28 H8         -0.4950   -2.1259    0.0000 H         1 <0>        0.00000
     29 H9         -0.2814   -1.3290    0.0000 H         1 <0>        0.00000
     30 H10        -0.8648   -0.7456    0.0000 H         1 <0>        0.00000
     31 H11        -0.6513    0.0513    0.0000 H         1 <0>        0.00000
     32 H12        -1.2346    0.6346    0.0000 H         1 <0>        0.00000
     33 H13        -1.5054   -3.1363    0.0000 H         1 <0>        0.00000
@<TRIPOS>BOND
     1    1    2 1
     2    2    3 1
     3    3    4 1
     4    4    5 1
     5    5    6 2
     6    6    7 1
     7    7    8 2
     8    4    8 1
     9    2    9 1
    10    9   10 1
    11   10   11 1
    12   11   12 2
    13   12   13 1
    14   13   14 2
    15    9   15 1
    16   15   16 1
    17   15   17 2
    18    2   18 1
    19   18   19 2
    20   18   20 2
    21    1   21 1
    22    1   22 1
    23    1   23 1
    24    3   24 1
    25    3   25 1
    26    5   26 1
    27    6   27 1
    28    9   28 1
    29   10   29 1
    30   11   30 1
    31   12   31 1
    32   13   32 1
    33   16   33 1
@<TRIPOS>SUBSTRUCTURE
     1 <0>         1 GROUP 0 A     ****
@<TRIPOS>MOLECULE
880
   23    24     1     0     0
SMALL
NO_CHARGES

@<TRIPOS>ATOM
      1 Cl1         2.8075    1.0170    0.0000 Cl        1 <0>        0.00000
      2 S1          5.6885   -0.6617    0.0000 S.o2      1 <0>        0.00000
      3 S2          2.8075   -0.6330    0.0000 S.o2      1 <0>        0.00000
      4 O1          6.0927   -1.3808    0.0000 O.2       1 <0>        0.00000
      5 O2          5.2677   -1.3713    0.0000 O.2       1 <0>        0.00000
      6 O3          3.2200   -1.3475    0.0000 O.2       1 <0>        0.00000
      7 O4          2.3950    0.0814    0.0000 O.2       1 <0>        0.00000
      8 N1          5.6885    1.0456    0.0000 N.pl3     1 <0>        0.00000
      9 N2          6.4360   -0.2377    0.0000 N.ar      1 <0>        0.00000
     10 N3          2.0930   -1.0455    0.0000 N.pl3     1 <0>        0.00000
     11 C1          4.9509   -0.2205    0.0000 C.ar      1 <0>        0.00000
     12 C2          4.9509    0.6045    0.0000 C.ar      1 <0>        0.00000
     13 C3          3.5220   -0.2205    0.0000 C.ar      1 <0>        0.00000
     14 C4          4.2365   -0.6330    0.0000 C.ar      1 <0>        0.00000
     15 C5          4.2365    1.0170    0.0000 C.ar      1 <0>        0.00000
     16 C6          3.5220    0.6045    0.0000 C.ar      1 <0>        0.00000
     17 C7          6.4360    0.6217    0.0000 C.ar      1 <0>        0.00000
     18 H1          5.6885    1.0456    0.0000 H         1 <0>        0.00000
     19 H2          2.0930   -1.0455    0.0000 H         1 <0>        0.00000
     20 H3          2.0930   -1.0455    0.0000 H         1 <0>        0.00000
     21 H4          4.2365   -0.6330    0.0000 H         1 <0>        0.00000
     22 H5          4.2365    1.0170    0.0000 H         1 <0>        0.00000
     23 H6          6.4360    0.6217    0.0000 H         1 <0>        0.00000
@<TRIPOS>BOND
     1    1   16 1
     2    2    4 2
     3    2    5 2
     4    2    9 1
     5    2   11 1
     6    3    6 2
     7    3    7 2
     8    3   10 1
     9    3   13 1
    10    8   12 1
    11    8   17 1
    12    9   17 2
    13   11   12 ar
    14   11   14 ar
    15   12   15 ar
    16   13   14 ar
    17   13   16 ar
    18   15   16 ar
    19    8   18 1
    20   10   19 1
    21   10   20 1
    22   14   21 1
    23   15   22 1
    24   17   23 1
@<TRIPOS>SUBSTRUCTURE
     1 <0>         1 GROUP 0 A     ****
@<TRIPOS>MOLECULE
MRA
   38    39     1     0     0
SMALL
NO_CHARGES

@<TRIPOS>ATOM
      1 C1         -2.1880   -2.2391    0.0000 C.ar      1 <0>        0.00000
      2 C2         -1.4735   -1.8266    0.0000 C.ar      1 <0>        0.00000
      3 C3         -1.4735   -1.0016    0.0000 C.ar      1 <0>        0.00000
      4 C4         -2.1880   -0.5891    0.0000 C.ar      1 <0>        0.00000
      5 C5         -2.9024   -1.0016    0.0000 C.ar      1 <0>        0.00000
      6 C6         -2.9024   -1.8266    0.0000 C.ar      1 <0>        0.00000
      7 C7         -3.6169   -2.2391    0.0000 C.1       1 <0>        0.00000
      8 C8         -4.3314   -2.6516    0.0000 C.1       1 <0>        0.00000
      9 N1         -0.7590   -0.5891    0.0000 N.pl3     1 <0>        0.00000
     10 C9         -0.7590    0.2359    0.0000 C.ar      1 <0>        0.00000
     11 C10        -0.0446    0.6484    0.0000 C.ar      1 <0>        0.00000
     12 C11        -0.0446    1.4734    0.0000 C.ar      1 <0>        0.00000
     13 C12        -0.7590    1.8859    0.0000 C.ar      1 <0>        0.00000
     14 C13        -1.4735    1.4734    0.0000 C.ar      1 <0>        0.00000
     15 C14        -1.4735    0.6484    0.0000 C.ar      1 <0>        0.00000
     16 F1         -2.1880    0.2359    0.0000 F         1 <0>        0.00000
     17 F2         -2.1880    1.8859    0.0000 F         1 <0>        0.00000
     18 C15         0.6699    0.2359    0.0000 C.2       1 <0>        0.00000
     19 O1          0.6699   -0.5891    0.0000 O.2       1 <0>        0.00000
     20 N2          1.3844    0.6484    0.0000 N.am      1 <0>        0.00000
     21 O2          2.0989    0.2359    0.0000 O.3       1 <0>        0.00000
     22 C16         2.8133    0.6484    0.0000 C.3       1 <0>        0.00000
     23 C17         3.5278    0.2359    0.0000 C.3       1 <0>        0.00000
     24 O3          4.2423    0.6484    0.0000 O.3       1 <0>        0.00000
     25 F3         -0.7590   -2.2391    0.0000 F         1 <0>        0.00000
     26 H1         -2.1880   -2.2391    0.0000 H         1 <0>        0.00000
     27 H2         -2.1880   -0.5891    0.0000 H         1 <0>        0.00000
     28 H3         -2.9024   -1.0016    0.0000 H         1 <0>        0.00000
     29 H4         -4.3314   -2.6516    0.0000 H         1 <0>        0.00000
     30 H5         -0.7590   -0.5891    0.0000 H         1 <0>        0.00000
     31 H6         -0.0446    1.4734    0.0000 H         1 <0>        0.00000
     32 H7         -0.7590    1.8859    0.0000 H         1 <0>        0.00000
     33 H8          1.3844    0.6484    0.0000 H         1 <0>        0.00000
     34 H9          2.8133    0.6484    0.0000 H         1 <0>        0.00000
     35 H10         2.8133    0.6484    0.0000 H         1 <0>        0.00000
     36 H11         3.5278    0.2359    0.0000 H         1 <0>        0.00000
     37 H12         3.5278    0.2359    0.0000 H         1 <0>        0.00000
     38 H13         4.2423    0.6484    0.0000 H         1 <0>        0.00000
@<TRIPOS>BOND
     1    1    2 ar
     2    1    6 ar
     3    2   25 1
     4    2    3 ar
     5    3    9 1
     6    3    4 ar
     7    4    5 ar
     8    5    6 ar
     9    6    7 1
    10    7    8 3
    11    9   10 1
    12   10   15 ar
    13   10   11 ar
    14   11   18 1
    15   11   12 ar
    16   12   13 ar
    17   13   14 ar
    18   14   15 ar
    19   14   17 1
    20   15   16 1
    21   18   19 2
    22   18   20 am
    23   20   21 1
    24   21   22 1
    25   22   23 1
    26   23   24 1
    27    1   26 1
    28    4   27 1
    29    5   28 1
    30    8   29 1
    31    9   30 1
    32   12   31 1
    33   13   32 1
    34   20   33 1
    35   22   34 1
    36   22   35 1
    37   23   36 1
    38   23   37 1
    39   24   38 1
@<TRIPOS>SUBSTRUCTURE
     1 <0>         1 GROUP 0 A     ****
@<TRIPOS>MOLECULE
*****
   53    54     1     0     0
SMALL
NO_CHARGES

@<TRIPOS>ATOM
      1 C1          0.0000   -2.4750    0.0000 C.3       1 <0>        0.00000
      2 C2          0.7145   -2.8875    0.0000 C.3       1 <0>        0.00000
      3 C3          1.4289   -2.4750    0.0000 C.3       1 <0>        0.00000
      4 C4          2.1434   -2.8875    0.0000 C.3       1 <0>        0.00000
      5 O1          2.8579   -2.4750    0.0000 O.3       1 <0>        0.00000
      6 C5          3.5724   -2.8875    0.0000 C.ar      1 <0>        0.00000
      7 C6          4.2868   -2.4750    0.0000 C.ar      1 <0>        0.00000
      8 C7          5.0013   -2.8875    0.0000 C.ar      1 <0>        0.00000
      9 C8          5.0013   -3.7125    0.0000 C.ar      1 <0>        0.00000
     10 C9          4.2868   -4.1250    0.0000 C.ar      1 <0>        0.00000
     11 C10         3.5724   -3.7125    0.0000 C.ar      1 <0>        0.00000
     12 S1          5.7158   -4.1250    0.0000 S.o2      1 <0>        0.00000
     13 O2          5.3033   -4.8395    0.0000 O.2       1 <0>        0.00000
     14 O3          6.1283   -3.4105    0.0000 O.2       1 <0>        0.00000
     15 N1          6.4302   -4.5375    0.0000 N.pl3     1 <0>        0.00000
     16 C11         7.1839   -4.2019    0.0000 C.3       1 <0>        0.00000
     17 C12         7.7359   -4.8150    0.0000 C.3       1 <0>        0.00000
     18 C13         7.3234   -5.5295    0.0000 C.3       1 <0>        0.00000
     19 C14         6.5165   -5.3580    0.0000 C.3       1 <0>        0.00000
     20 C15         5.9034   -5.9100    0.0000 C.2       1 <0>        0.00000
     21 O4          5.1188   -5.6551    0.0000 O.2       1 <0>        0.00000
     22 N2          6.0749   -6.7170    0.0000 N.am      1 <0>        0.00000
     23 O5          5.4618   -7.2690    0.0000 O.3       1 <0>        0.00000
     24 N3          8.5564   -4.7288    0.0000 N.pl3     1 <0>        0.00000
     25 S2          8.8920   -3.9751    0.0000 S.o2      1 <0>        0.00000
     26 C16         9.2275   -3.2215    0.0000 C.3       1 <0>        0.00000
     27 O6          9.6457   -4.3107    0.0000 O.2       1 <0>        0.00000
     28 O7          8.1383   -3.6396    0.0000 O.2       1 <0>        0.00000
     29 H1          0.0000   -2.4750    0.0000 H         1 <0>        0.00000
     30 H2          0.0000   -2.4750    0.0000 H         1 <0>        0.00000
     31 H3          0.0000   -2.4750    0.0000 H         1 <0>        0.00000
     32 H4          0.7145   -2.8875    0.0000 H         1 <0>        0.00000
     33 H5          0.7145   -2.8875    0.0000 H         1 <0>        0.00000
     34 H6          1.4289   -2.4750    0.0000 H         1 <0>        0.00000
     35 H7          1.4289   -2.4750    0.0000 H         1 <0>        0.00000
     36 H8          2.1434   -2.8875    0.0000 H         1 <0>        0.00000
     37 H9          2.1434   -2.8875    0.0000 H         1 <0>        0.00000
     38 H10         4.2868   -2.4750    0.0000 H         1 <0>        0.00000
     39 H11         5.0013   -2.8875    0.0000 H         1 <0>        0.00000
     40 H12         4.2868   -4.1250    0.0000 H         1 <0>        0.00000
     41 H13         3.5724   -3.7125    0.0000 H         1 <0>        0.00000
     42 H14         7.1839   -4.2019    0.0000 H         1 <0>        0.00000
     43 H15         7.1839   -4.2019    0.0000 H         1 <0>        0.00000
     44 H16         7.7359   -4.8150    0.0000 H         1 <0>        0.00000
     45 H17         7.3234   -5.5295    0.0000 H         1 <0>        0.00000
     46 H18         7.3234   -5.5295    0.0000 H         1 <0>        0.00000
     47 H19         6.5165   -5.3580    0.0000 H         1 <0>        0.00000
     48 H20         6.0749   -6.7170    0.0000 H         1 <0>        0.00000
     49 H21         5.4618   -7.2690    0.0000 H         1 <0>        0.00000
     50 H22         8.5564   -4.7288    0.0000 H         1 <0>        0.00000
     51 H23         9.2275   -3.2215    0.0000 H         1 <0>        0.00000
     52 H24         9.2275   -3.2215    0.0000 H         1 <0>        0.00000
     53 H25         9.2275   -3.2215    0.0000 H         1 <0>        0.00000
@<TRIPOS>BOND
     1    1    2 1
     2    2    3 1
     3    3    4 1
     4    4    5 1
     5    5    6 1
     6    6    7 ar
     7    7    8 ar
     8    8    9 ar
     9    9   10 ar
    10   10   11 ar
    11    6   11 ar
    12    9   12 1
    13   12   13 2
    14   12   14 2
    15   12   15 1
    16   15   16 1
    17   16   17 1
    18   17   18 1
    19   18   19 1
    20   15   19 1
    21   19   20 1
    22   20   21 2
    23   20   22 am
    24   22   23 1
    25   17   24 1
    26   24   25 1
    27   25   26 1
    28   25   27 2
    29   25   28 2
    30    1   29 1
    31    1   30 1
    32    1   31 1
    33    2   32 1
    34    2   33 1
    35    3   34 1
    36    3   35 1
    37    4   36 1
    38    4   37 1
    39    7   38 1
    40    8   39 1
    41   10   40 1
    42   11   41 1
    43   16   42 1
    44   16   43 1
    45   17   44 1
    46   18   45 1
    47   18   46 1
    48   19   47 1
    49   22   48 1
    50   23   49 1
    51   24   50 1
    52   26   51 1
    53   26   52 1
    54   26   53 1
@<TRIPOS>SUBSTRUCTURE
     1 <0>         1 GROUP 0 A     ****
@<TRIPOS>MOLECULE
*****
   17    11     1     0     0
SMALL
NO_CHARGES

@<TRIPOS>ATOM
      1 Cl1         0.7145    0.0000    0.0000 Cl        1 <0>        0.00000
      2 Cl2         0.7145    4.1251    0.0000 Cl        1 <0>        0.00000
      3 Cl3         3.7935    4.1251    0.0000 Cl        1 <0>        0.00000
      4 Cl4         3.7935    2.0625    0.0000 Cl        1 <0>        0.00000
      5 O1          1.4290    0.4125    0.0000 O.3       1 <0>        0.00000
      6 O2          1.4290    4.5376    0.0000 O.3       1 <0>        0.00000
      7 O3          4.5080    4.5376    0.0000 O.3       1 <0>        0.00000
      8 O4          4.5080    2.4751    0.0000 O.3       1 <0>        0.00000
      9 O5          0.0000    0.4125    0.0000 O.2       1 <0>        0.00000
     10 O6          0.0000    4.5376    0.0000 O.2       1 <0>        0.00000
     11 O7          3.0791    4.5376    0.0000 O.2       1 <0>        0.00000
     12 O8          3.0791    2.4751    0.0000 O.2       1 <0>        0.00000
     13 O9          3.7935    0.0000    0.0000 O.3       1 <0>        0.00000
     14 O10         1.1270    2.0625    0.0000 O.2       1 <0>        0.00000
     15 O11         0.3020    2.0625    0.0000 O.2       1 <0>        0.00000
     16 H1          3.7935    0.0000    0.0000 H         1 <0>        0.00000
     17 H2          3.7935    0.0000    0.0000 H         1 <0>        0.00000
@<TRIPOS>BOND
     1    1    5 1
     2    1    9 2
     3    2    6 1
     4    2   10 2
     5    3    7 1
     6    3   11 2
     7    4    8 1
     8    4   12 2
     9   14   15 2
    10   13   16 1
    11   13   17 1
@<TRIPOS>SUBSTRUCTURE
     1 <0>         1 GROUP 0 A     ****
@<TRIPOS>MOLECULE
*****
   76    83     1     0     0
SMALL
NO_CHARGES

@<TRIPOS>ATOM
      1 S1          6.6867   -3.9195    0.0000 S.3       1 <0>        0.00000
      2 S2          2.2404    3.7817    0.0000 S.3       1 <0>        0.00000
      3 O1          6.1632    2.2248    0.0000 O.3       1 <0>        0.00000
      4 O2          9.1988   -0.6225    0.0000 O.3       1 <0>        0.00000
      5 O3          8.0036   -1.3126    0.0000 O.2       1 <0>        0.00000
      6 O4          1.6103   -0.0705    0.0000 O.2       1 <0>        0.00000
      7 O5          9.5972   -1.3126    0.0000 O.3       1 <0>        0.00000
      8 N1          5.4555   -0.4162    0.0000 N.pl3     1 <0>        0.00000
      9 N2          4.6587    0.9638    0.0000 N.pl3     1 <0>        0.00000
     10 N3          2.1177   -1.4232    0.0000 N.am      1 <0>        0.00000
     11 C1          6.5439    0.6722    0.0000 C.3       1 <0>        0.00000
     12 C2          8.0036    0.0676    0.0000 C.3       1 <0>        0.00000
     13 C3          6.7502    1.4418    0.0000 C.3       1 <0>        0.00000
     14 C4          8.2099    0.8372    0.0000 C.3       1 <0>        0.00000
     15 C5          4.6587   -0.4162    0.0000 C.ar      1 <0>        0.00000
     16 C6          4.2603    0.2738    0.0000 C.ar      1 <0>        0.00000
     17 C7          4.2548   -1.1413    0.0000 C.ar      1 <0>        0.00000
     18 C8          3.4304    0.2865    0.0000 C.ar      1 <0>        0.00000
     19 C9          5.6983   -1.1703    0.0000 C.ar      1 <0>        0.00000
     20 C10         6.3377   -0.0974    0.0000 C.3       1 <0>        0.00000
     21 C11         4.1271    1.5511    0.0000 C.ar      1 <0>        0.00000
     22 C12         5.0571   -1.6353    0.0000 C.ar      1 <0>        0.00000
     23 C13         3.4249   -1.1478    0.0000 C.ar      1 <0>        0.00000
     24 C14         3.4038    1.2283    0.0000 C.ar      1 <0>        0.00000
     25 C15         3.0098   -0.4290    0.0000 C.ar      1 <0>        0.00000
     26 C16         8.4020   -0.6225    0.0000 C.2       1 <0>        0.00000
     27 C17         2.8712   -1.7595    0.0000 C.3       1 <0>        0.00000
     28 C18         6.4568   -1.4948    0.0000 C.ar      1 <0>        0.00000
     29 C19         2.2033   -0.6026    0.0000 C.2       1 <0>        0.00000
     30 C20         5.1300   -2.4571    0.0000 C.ar      1 <0>        0.00000
     31 C21         4.2253    2.3702    0.0000 C.ar      1 <0>        0.00000
     32 C22         2.7285    1.7023    0.0000 C.ar      1 <0>        0.00000
     33 C23         5.8808   -2.7991    0.0000 C.ar      1 <0>        0.00000
     34 C24         6.5487   -2.3147    0.0000 C.ar      1 <0>        0.00000
     35 C25         2.8077    2.5236    0.0000 C.ar      1 <0>        0.00000
     36 C26         3.5611    2.8598    0.0000 C.ar      1 <0>        0.00000
     37 C27         5.9603   -3.5919    0.0000 C.3       1 <0>        0.00000
     38 C28         2.1608    2.9889    0.0000 C.3       1 <0>        0.00000
     39 C29        10.3940   -1.3126    0.0000 C.3       1 <0>        0.00000
     40 C30         6.7662   -4.7123    0.0000 C.3       1 <0>        0.00000
     41 C31         1.5936    4.2470    0.0000 C.3       1 <0>        0.00000
     42 C32         7.4927   -5.0398    0.0000 C.3       1 <0>        0.00000
     43 C33         1.6731    5.0398    0.0000 C.3       1 <0>        0.00000
     44 H1          6.9151    2.0576    0.0000 H         1 <0>        0.00000
     45 H2          2.1177   -1.4232    0.0000 H         1 <0>        0.00000
     46 H3          8.0036    0.0676    0.0000 H         1 <0>        0.00000
     47 H4          8.2099    0.8372    0.0000 H         1 <0>        0.00000
     48 H5          8.2099    0.8372    0.0000 H         1 <0>        0.00000
     49 H6          6.3377   -0.0974    0.0000 H         1 <0>        0.00000
     50 H7          6.3377   -0.0974    0.0000 H         1 <0>        0.00000
     51 H8          6.3377   -0.0974    0.0000 H         1 <0>        0.00000
     52 H9          2.8712   -1.7595    0.0000 H         1 <0>        0.00000
     53 H10         2.8712   -1.7595    0.0000 H         1 <0>        0.00000
     54 H11         6.4568   -1.4948    0.0000 H         1 <0>        0.00000
     55 H12         5.1300   -2.4571    0.0000 H         1 <0>        0.00000
     56 H13         4.2253    2.3702    0.0000 H         1 <0>        0.00000
     57 H14         2.7285    1.7023    0.0000 H         1 <0>        0.00000
     58 H15         6.5487   -2.3147    0.0000 H         1 <0>        0.00000
     59 H16         3.5611    2.8598    0.0000 H         1 <0>        0.00000
     60 H17         5.9603   -3.5919    0.0000 H         1 <0>        0.00000
     61 H18         5.9603   -3.5919    0.0000 H         1 <0>        0.00000
     62 H19         2.1608    2.9889    0.0000 H         1 <0>        0.00000
     63 H20         2.1608    2.9889    0.0000 H         1 <0>        0.00000
     64 H21        10.3940   -1.3126    0.0000 H         1 <0>        0.00000
     65 H22        10.3940   -1.3126    0.0000 H         1 <0>        0.00000
     66 H23        10.3940   -1.3126    0.0000 H         1 <0>        0.00000
     67 H24         6.7662   -4.7123    0.0000 H         1 <0>        0.00000
     68 H25         6.7662   -4.7123    0.0000 H         1 <0>        0.00000
     69 H26         1.5936    4.2470    0.0000 H         1 <0>        0.00000
     70 H27         1.5936    4.2470    0.0000 H         1 <0>        0.00000
     71 H28         7.4927   -5.0398    0.0000 H         1 <0>        0.00000
     72 H29         7.4927   -5.0398    0.0000 H         1 <0>        0.00000
     73 H30         7.4927   -5.0398    0.0000 H         1 <0>        0.00000
     74 H31         1.6731    5.0398    0.0000 H         1 <0>        0.00000
     75 H32         1.6731    5.0398    0.0000 H         1 <0>        0.00000
     76 H33         1.6731    5.0398    0.0000 H         1 <0>        0.00000
@<TRIPOS>BOND
     1    1   37 1
     2    1   40 1
     3    2   38 1
     4    2   41 1
     5    3   11 1
     6    3   13 1
     7    4    7 1
     8    4   26 1
     9    5   26 2
    10    6   29 2
    11    7   39 1
    12    8   11 1
    13    8   15 1
    14    8   19 1
    15    9   13 1
    16    9   16 1
    17    9   21 1
    18   10   27 1
    19   10   29 am
    20   11   12 1
    21   11   20 1
    22   12   14 1
    23   12   26 1
    24   13   14 1
    25   13   44 1
    26   15   16 ar
    27   15   17 ar
    28   16   18 ar
    29   17   22 1
    30   17   23 ar
    31   18   24 1
    32   18   25 ar
    33   19   22 ar
    34   19   28 ar
    35   21   24 ar
    36   21   31 ar
    37   22   30 ar
    38   23   25 ar
    39   23   27 1
    40   24   32 ar
    41   25   29 1
    42   28   34 ar
    43   30   33 ar
    44   31   36 ar
    45   32   35 ar
    46   33   34 ar
    47   33   37 1
    48   35   36 ar
    49   35   38 1
    50   40   42 1
    51   41   43 1
    52   10   45 1
    53   12   46 1
    54   14   47 1
    55   14   48 1
    56   20   49 1
    57   20   50 1
    58   20   51 1
    59   27   52 1
    60   27   53 1
    61   28   54 1
    62   30   55 1
    63   31   56 1
    64   32   57 1
    65   34   58 1
    66   36   59 1
    67   37   60 1
    68   37   61 1
    69   38   62 1
    70   38   63 1
    71   39   64 1
    72   39   65 1
    73   39   66 1
    74   40   67 1
    75   40   68 1
    76   41   69 1
    77   41   70 1
    78   42   71 1
    79   42   72 1
    80   42   73 1
    81   43   74 1
    82   43   75 1
    83   43   76 1
@<TRIPOS>SUBSTRUCTURE
     1 <0>         1 GROUP 0 A     ****
@<TRIPOS>MOLECULE
*****
   13    13     1     0     0
SMALL
NO_CHARGES

@<TRIPOS>ATOM
      1 O1          0.0000    0.0000    0.0000 O.3       1 <0>        0.00000
      2 C1          0.6674   -0.4849    0.0000 C.3       1 <0>        0.00000
      3 N1         -0.6674   -0.4849    0.0000 N.am      1 <0>        0.00000
      4 C2          0.4125   -1.2695    0.0000 C.3       1 <0>        0.00000
      5 N2          0.8974   -1.9370    0.0000 N.3       1 <0>        0.00000
      6 C3         -0.4125   -1.2695    0.0000 C.2       1 <0>        0.00000
      7 O2         -0.8974   -1.9370    0.0000 O.2       1 <0>        0.00000
      8 H1          0.6674   -0.4849    0.0000 H         1 <0>        0.00000
      9 H2          0.6674   -0.4849    0.0000 H         1 <0>        0.00000
     10 H3         -0.6674   -0.4849    0.0000 H         1 <0>        0.00000
     11 H4          0.4125   -1.2695    0.0000 H         1 <0>        0.00000
     12 H5          0.8974   -1.9370    0.0000 H         1 <0>        0.00000
     13 H6          0.8974   -1.9370    0.0000 H         1 <0>        0.00000
@<TRIPOS>BOND
     1    1    2 1
     2    1    3 1
     3    2    4 1
     4    3    6 am
     5    4    6 1
     6    4    5 1
     7    6    7 2
     8    2    8 1
     9    2    9 1
    10    3   10 1
    11    4   11 1
    12    5   12 1
    13    5   13 1
@<TRIPOS>SUBSTRUCTURE
     1 <0>         1 GROUP 0 A     ****
@<TRIPOS>MOLECULE
*****
   45    46     1     0     0
SMALL
NO_CHARGES

@<TRIPOS>ATOM
      1 C1         -0.7366    1.7384    0.0000 C.3       1 <0>        0.00000
      2 C2          0.0884    1.7384    0.0000 C.3       1 <0>        0.00000
      3 N1          0.0884    0.9134    0.0000 N.am      1 <0>        0.00000
      4 C3         -0.7366    0.9134    0.0000 C.2       1 <0>        0.00000
      5 S1          0.6718    0.3300    0.0000 S.o2      1 <0>        0.00000
      6 O1          1.2551   -0.2533    0.0000 O.3       1 <0>        0.00000
      7 O2          1.2684    0.9586    0.0000 O.2       1 <0>        0.00000
      8 O3          0.0555   -0.2985    0.0000 O.2       1 <0>        0.00000
      9 O4         -1.3200    0.3300    0.0000 O.2       1 <0>        0.00000
     10 C4          0.6718    2.3218    0.0000 C.3       1 <0>        0.00000
     11 N2         -1.4511    2.1509    0.0000 N.am      1 <0>        0.00000
     12 C5         -2.1655    1.7384    0.0000 C.2       1 <0>        0.00000
     13 O5         -2.1655    0.9134    0.0000 O.2       1 <0>        0.00000
     14 C6         -2.8800    2.1509    0.0000 C.2       1 <0>        0.00000
     15 N3         -2.8800    2.9759    0.0000 N.2       1 <0>        0.00000
     16 S2         -4.3791    0.6585    0.0000 S.3       1 <0>        0.00000
     17 C7         -3.5945    0.9134    0.0000 C.ar      1 <0>        0.00000
     18 C8         -3.5945    1.7384    0.0000 C.ar      1 <0>        0.00000
     19 N4         -4.3791    1.9933    0.0000 N.ar      1 <0>        0.00000
     20 C9         -4.8640    1.3259    0.0000 C.ar      1 <0>        0.00000
     21 O6         -2.1655    3.3884    0.0000 O.3       1 <0>        0.00000
     22 C10        -2.1655    4.2134    0.0000 C.3       1 <0>        0.00000
     23 C11        -1.4511    4.6259    0.0000 C.2       1 <0>        0.00000
     24 O7         -1.4511    5.4509    0.0000 O.2       1 <0>        0.00000
     25 O8         -0.7366    4.2134    0.0000 O.3       1 <0>        0.00000
     26 C12        -2.5780    4.9279    0.0000 C.3       1 <0>        0.00000
     27 C13        -2.9624    3.9999    0.0000 C.3       1 <0>        0.00000
     28 N5         -5.6890    1.3259    0.0000 N.4       1 <0>        0.00000
     29 H1         -0.7366    1.7384    0.0000 H         1 <0>        0.00000
     30 H2          0.0884    1.7384    0.0000 H         1 <0>        0.00000
     31 H3          0.6718    2.3218    0.0000 H         1 <0>        0.00000
     32 H4          0.6718    2.3218    0.0000 H         1 <0>        0.00000
     33 H5          0.6718    2.3218    0.0000 H         1 <0>        0.00000
     34 H6         -1.4511    2.1509    0.0000 H         1 <0>        0.00000
     35 H7         -3.5945    0.9134    0.0000 H         1 <0>        0.00000
     36 H8         -0.7366    4.2134    0.0000 H         1 <0>        0.00000
     37 H9         -2.5780    4.9279    0.0000 H         1 <0>        0.00000
     38 H10        -2.5780    4.9279    0.0000 H         1 <0>        0.00000
     39 H11        -2.5780    4.9279    0.0000 H         1 <0>        0.00000
     40 H12        -2.9624    3.9999    0.0000 H         1 <0>        0.00000
     41 H13        -2.9624    3.9999    0.0000 H         1 <0>        0.00000
     42 H14        -2.9624    3.9999    0.0000 H         1 <0>        0.00000
     43 H15        -5.6890    1.3259    0.0000 H         1 <0>        0.00000
     44 H16        -5.6890    1.3259    0.0000 H         1 <0>        0.00000
     45 H17        -5.6890    1.3259    0.0000 H         1 <0>        0.00000
@<TRIPOS>BOND
     1    1    2 1
     2    2    3 1
     3    1    4 1
     4    3    4 am
     5    3    5 1
     6    5    6 1
     7    5    7 2
     8    5    8 2
     9    4    9 2
    10    2   10 1
    11    1   11 1
    12   11   12 am
    13   12   13 2
    14   12   14 1
    15   14   18 1
    16   14   15 2
    17   16   17 1
    18   16   20 1
    19   17   18 2
    20   18   19 1
    21   19   20 2
    22   15   21 1
    23   21   22 1
    24   22   23 1
    25   23   24 2
    26   23   25 1
    27   22   26 1
    28   22   27 1
    29   20   28 1
    30    1   29 1
    31    2   30 1
    32   10   31 1
    33   10   32 1
    34   10   33 1
    35   11   34 1
    36   17   35 1
    37   25   36 1
    38   26   37 1
    39   26   38 1
    40   26   39 1
    41   27   40 1
    42   27   41 1
    43   27   42 1
    44   28   43 1
    45   28   44 1
    46   28   45 1
@<TRIPOS>SUBSTRUCTURE
     1 <0>         1 GROUP 0 A     ****
@<TRIPOS>MOLECULE
I11
   68    70     1     0     0
SMALL
NO_CHARGES

@<TRIPOS>ATOM
      1 C1         -4.7449   -0.9025    0.0000 C.3       1 <0>        0.00000
      2 C2         -3.9347   -0.7466    0.0000 C.3       1 <0>        0.00000
      3 C3         -3.3946   -1.3702    0.0000 C.3       1 <0>        0.00000
      4 C4         -3.6647   -2.1497    0.0000 C.3       1 <0>        0.00000
      5 C5         -4.4748   -2.3057    0.0000 C.3       1 <0>        0.00000
      6 C6         -5.0149   -1.6820    0.0000 C.3       1 <0>        0.00000
      7 S1         -2.5845   -1.2143    0.0000 S.o2      1 <0>        0.00000
      8 O1         -2.4286   -2.0244    0.0000 O.2       1 <0>        0.00000
      9 O2         -2.7404   -0.4042    0.0000 O.2       1 <0>        0.00000
     10 N1         -1.7744   -1.0584    0.0000 N.pl3     1 <0>        0.00000
     11 C7         -1.5043   -0.2788    0.0000 C.3       1 <0>        0.00000
     12 C8         -0.6942   -0.1229    0.0000 C.2       1 <0>        0.00000
     13 O3         -0.1541   -0.7466    0.0000 O.2       1 <0>        0.00000
     14 N2         -0.4241    0.6566    0.0000 N.am      1 <0>        0.00000
     15 C9          0.3860    0.8125    0.0000 C.3       1 <0>        0.00000
     16 C10         0.9261    0.1889    0.0000 C.3       1 <0>        0.00000
     17 C11         0.6560   -0.5906    0.0000 C.3       1 <0>        0.00000
     18 N3          1.1961   -1.2143    0.0000 N.pl3     1 <0>        0.00000
     19 C12         2.0063   -1.0584    0.0000 C.ar      1 <0>        0.00000
     20 C13         2.2763   -0.2788    0.0000 C.ar      1 <0>        0.00000
     21 C14         3.0864   -0.1229    0.0000 C.ar      1 <0>        0.00000
     22 N4          3.6265   -0.7466    0.0000 N.ar      1 <0>        0.00000
     23 C15         3.3565   -1.5261    0.0000 C.ar      1 <0>        0.00000
     24 C16         2.5464   -1.6820    0.0000 C.ar      1 <0>        0.00000
     25 C17         0.6560    1.5921    0.0000 C.2       1 <0>        0.00000
     26 O4          0.1160    2.2157    0.0000 O.2       1 <0>        0.00000
     27 N5          1.4662    1.7480    0.0000 N.am      1 <0>        0.00000
     28 C18         1.7362    2.5276    0.0000 C.3       1 <0>        0.00000
     29 C19         2.5464    2.6835    0.0000 C.3       1 <0>        0.00000
     30 C20         3.0864    2.0598    0.0000 C.3       1 <0>        0.00000
     31 C21         2.8164    1.2803    0.0000 C.3       1 <0>        0.00000
     32 C22         2.0063    1.1244    0.0000 C.3       1 <0>        0.00000
     33 H1          0.1949    0.2608    0.0000 H         1 <0>        0.00000
     34 H2         -4.7449   -0.9025    0.0000 H         1 <0>        0.00000
     35 H3         -4.7449   -0.9025    0.0000 H         1 <0>        0.00000
     36 H4         -3.9347   -0.7466    0.0000 H         1 <0>        0.00000
     37 H5         -3.9347   -0.7466    0.0000 H         1 <0>        0.00000
     38 H6         -3.3946   -1.3702    0.0000 H         1 <0>        0.00000
     39 H7         -3.6647   -2.1497    0.0000 H         1 <0>        0.00000
     40 H8         -3.6647   -2.1497    0.0000 H         1 <0>        0.00000
     41 H9         -4.4748   -2.3057    0.0000 H         1 <0>        0.00000
     42 H10        -4.4748   -2.3057    0.0000 H         1 <0>        0.00000
     43 H11        -5.0149   -1.6820    0.0000 H         1 <0>        0.00000
     44 H12        -5.0149   -1.6820    0.0000 H         1 <0>        0.00000
     45 H13        -1.7744   -1.0584    0.0000 H         1 <0>        0.00000
     46 H14        -1.5043   -0.2788    0.0000 H         1 <0>        0.00000
     47 H15        -1.5043   -0.2788    0.0000 H         1 <0>        0.00000
     48 H16        -0.4241    0.6566    0.0000 H         1 <0>        0.00000
     49 H17         0.9261    0.1889    0.0000 H         1 <0>        0.00000
     50 H18         0.9261    0.1889    0.0000 H         1 <0>        0.00000
     51 H19         0.6560   -0.5906    0.0000 H         1 <0>        0.00000
     52 H20         0.6560   -0.5906    0.0000 H         1 <0>        0.00000
     53 H21         1.1961   -1.2143    0.0000 H         1 <0>        0.00000
     54 H22         2.2763   -0.2788    0.0000 H         1 <0>        0.00000
     55 H23         3.0864   -0.1229    0.0000 H         1 <0>        0.00000
     56 H24         3.6265   -0.7466    0.0000 H         1 <0>        0.00000
     57 H25         3.3565   -1.5261    0.0000 H         1 <0>        0.00000
     58 H26         2.5464   -1.6820    0.0000 H         1 <0>        0.00000
     59 H27         1.7362    2.5276    0.0000 H         1 <0>        0.00000
     60 H28         1.7362    2.5276    0.0000 H         1 <0>        0.00000
     61 H29         2.5464    2.6835    0.0000 H         1 <0>        0.00000
     62 H30         2.5464    2.6835    0.0000 H         1 <0>        0.00000
     63 H31         3.0864    2.0598    0.0000 H         1 <0>        0.00000
     64 H32         3.0864    2.0598    0.0000 H         1 <0>        0.00000
     65 H33         2.8164    1.2803    0.0000 H         1 <0>        0.00000
     66 H34         2.8164    1.2803    0.0000 H         1 <0>        0.00000
     67 H35         2.0063    1.1244    0.0000 H         1 <0>        0.00000
     68 H36         2.0063    1.1244    0.0000 H         1 <0>        0.00000
@<TRIPOS>BOND
     1    1    2 1
     2    1    6 1
     3    2    3 1
     4    3    4 1
     5    3    7 1
     6    4    5 1
     7    5    6 1
     8    7    8 2
     9    7    9 2
    10    7   10 1
    11   10   11 1
    12   11   12 1
    13   12   13 2
    14   12   14 am
    15   14   15 1
    16   15   16 1
    17   15   25 1
    18   15   33 1
    19   16   17 1
    20   17   18 1
    21   18   19 1
    22   19   20 ar
    23   19   24 ar
    24   20   21 ar
    25   21   22 ar
    26   22   23 ar
    27   23   24 ar
    28   25   26 2
    29   25   27 am
    30   27   28 1
    31   27   32 1
    32   28   29 1
    33   29   30 1
    34   30   31 1
    35   31   32 1
    36    1   34 1
    37    1   35 1
    38    2   36 1
    39    2   37 1
    40    3   38 1
    41    4   39 1
    42    4   40 1
    43    5   41 1
    44    5   42 1
    45    6   43 1
    46    6   44 1
    47   10   45 1
    48   11   46 1
    49   11   47 1
    50   14   48 1
    51   16   49 1
    52   16   50 1
    53   17   51 1
    54   17   52 1
    55   18   53 1
    56   20   54 1
    57   21   55 1
    58   22   56 1
    59   23   57 1
    60   24   58 1
    61   28   59 1
    62   28   60 1
    63   29   61 1
    64   29   62 1
    65   30   63 1
    66   30   64 1
    67   31   65 1
    68   31   66 1
    69   32   67 1
    70   32   68 1
@<TRIPOS>SUBSTRUCTURE
     1 <0>         1 GROUP 0 A     ****
@<TRIPOS>MOLECULE
*****
   49    52     1     0     0
SMALL
NO_CHARGES

@<TRIPOS>ATOM
      1 O1          7.7254    1.5548    0.0000 O.3       1 <0>        0.00000
      2 O2          2.3626   -1.9994    0.0000 O.3       1 <0>        0.00000
      3 C1          6.8116    0.5185    0.0000 C.3       1 <0>        0.00000
      4 C2          6.8116   -0.3064    0.0000 C.3       1 <0>        0.00000
      5 C3          6.0971   -0.7188    0.0000 C.3       1 <0>        0.00000
      6 C4          7.5921    0.7699    0.0000 C.3       1 <0>        0.00000
      7 C5          6.0971    0.9310    0.0000 C.3       1 <0>        0.00000
      8 C6          7.5921   -0.5577    0.0000 C.3       1 <0>        0.00000
      9 C7          5.3827    0.5185    0.0000 C.3       1 <0>        0.00000
     10 C8          8.0734    0.1061    0.0000 C.3       1 <0>        0.00000
     11 C9          6.1102   -1.5781    0.0000 C.3       1 <0>        0.00000
     12 C10         6.8116    1.3434    0.0000 C.3       1 <0>        0.00000
     13 C11         4.6321   -0.7245    0.0000 C.ar      1 <0>        0.00000
     14 C12         5.3696   -2.0134    0.0000 C.3       1 <0>        0.00000
     15 C13         4.6255   -1.5838    0.0000 C.ar      1 <0>        0.00000
     16 C14         8.2602    0.9263    0.0000 C.1       1 <0>        0.00000
     17 C15         3.8674   -0.2592    0.0000 C.ar      1 <0>        0.00000
     18 C16         3.8538   -2.0372    0.0000 C.ar      1 <0>        0.00000
     19 C17         3.0855   -0.6947    0.0000 C.ar      1 <0>        0.00000
     20 C18         3.0785   -1.5898    0.0000 C.ar      1 <0>        0.00000
     21 C19         9.0774    1.0528    0.0000 C.1       1 <0>        0.00000
     22 H1          6.0759    0.0864    0.0000 H         1 <0>        0.00000
     23 C20         5.3827   -0.3064    0.0000 C.3       1 <0>        0.00000
     24 H2          5.3762   -1.1312    0.0000 H         1 <0>        0.00000
     25 H3          6.8988   -1.1266    0.0000 H         1 <0>        0.00000
     26 C21         1.6497   -1.5840    0.0000 C.3       1 <0>        0.00000
     27 H4          7.7254    1.5548    0.0000 H         1 <0>        0.00000
     28 H5          6.0971    0.9310    0.0000 H         1 <0>        0.00000
     29 H6          6.0971    0.9310    0.0000 H         1 <0>        0.00000
     30 H7          7.5921   -0.5577    0.0000 H         1 <0>        0.00000
     31 H8          7.5921   -0.5577    0.0000 H         1 <0>        0.00000
     32 H9          5.3827    0.5185    0.0000 H         1 <0>        0.00000
     33 H10         5.3827    0.5185    0.0000 H         1 <0>        0.00000
     34 H11         8.0734    0.1061    0.0000 H         1 <0>        0.00000
     35 H12         8.0734    0.1061    0.0000 H         1 <0>        0.00000
     36 H13         6.1102   -1.5781    0.0000 H         1 <0>        0.00000
     37 H14         6.1102   -1.5781    0.0000 H         1 <0>        0.00000
     38 H15         6.8116    1.3434    0.0000 H         1 <0>        0.00000
     39 H16         6.8116    1.3434    0.0000 H         1 <0>        0.00000
     40 H17         6.8116    1.3434    0.0000 H         1 <0>        0.00000
     41 H18         5.3696   -2.0134    0.0000 H         1 <0>        0.00000
     42 H19         5.3696   -2.0134    0.0000 H         1 <0>        0.00000
     43 H20         3.8674   -0.2592    0.0000 H         1 <0>        0.00000
     44 H21         3.8538   -2.0372    0.0000 H         1 <0>        0.00000
     45 H22         3.0855   -0.6947    0.0000 H         1 <0>        0.00000
     46 H23         9.0774    1.0528    0.0000 H         1 <0>        0.00000
     47 H24         1.6497   -1.5840    0.0000 H         1 <0>        0.00000
     48 H25         1.6497   -1.5840    0.0000 H         1 <0>        0.00000
     49 H26         1.6497   -1.5840    0.0000 H         1 <0>        0.00000
@<TRIPOS>BOND
     1    1    6 1
     2    2   20 1
     3    3    4 1
     4    3    6 1
     5    3    7 1
     6    3   12 1
     7    4    5 1
     8    4    8 1
     9    5   11 1
    10    5   22 1
    11    6   10 1
    12    6   16 1
    13    7    9 1
    14    8   10 1
    15   11   14 1
    16   13   15 ar
    17   13   17 ar
    18   14   15 1
    19   15   18 ar
    20   16   21 3
    21   17   19 ar
    22   18   20 ar
    23   19   20 ar
    24    5   23 1
    25    9   23 1
    26   13   23 1
    27   23   24 1
    28    4   25 1
    29    2   26 1
    30    1   27 1
    31    7   28 1
    32    7   29 1
    33    8   30 1
    34    8   31 1
    35    9   32 1
    36    9   33 1
    37   10   34 1
    38   10   35 1
    39   11   36 1
    40   11   37 1
    41   12   38 1
    42   12   39 1
    43   12   40 1
    44   14   41 1
    45   14   42 1
    46   17   43 1
    47   18   44 1
    48   19   45 1
    49   21   46 1
    50   26   47 1
    51   26   48 1
    52   26   49 1
@<TRIPOS>SUBSTRUCTURE
     1 <0>         1 GROUP 0 A     ****
@<TRIPOS>MOLECULE
*****
   40    42     1     0     0
SMALL
NO_CHARGES

@<TRIPOS>ATOM
      1 S1          4.7593   -0.4259    0.0000 S.3       1 <0>        0.00000
      2 N1          2.8876    0.4678    0.0000 N.3       1 <0>        0.00000
      3 C1          3.3001   -0.2467    0.0000 C.3       1 <0>        0.00000
      4 C2          4.0145   -0.6592    0.0000 C.3       1 <0>        0.00000
      5 C3          2.5856   -0.6592    0.0000 C.3       1 <0>        0.00000
      6 C4          4.0145   -1.4842    0.0000 C.3       1 <0>        0.00000
      7 C5          2.5856   -1.4842    0.0000 C.3       1 <0>        0.00000
      8 C6          2.0625    0.4678    0.0000 C.3       1 <0>        0.00000
      9 C7          3.3001    1.1823    0.0000 C.3       1 <0>        0.00000
     10 C8          3.3001   -1.8967    0.0000 C.3       1 <0>        0.00000
     11 C9          4.0753    0.0355    0.0000 C.ar      1 <0>        0.00000
     12 C10         1.6500    1.1823    0.0000 C.3       1 <0>        0.00000
     13 C11         2.8876    1.8967    0.0000 C.3       1 <0>        0.00000
     14 C12         2.0625    1.8967    0.0000 C.3       1 <0>        0.00000
     15 C13         4.3027    0.8285    0.0000 C.ar      1 <0>        0.00000
     16 C14         5.1272    0.8573    0.0000 C.ar      1 <0>        0.00000
     17 C15         5.4094    0.0821    0.0000 C.ar      1 <0>        0.00000
     18 H1          4.0145   -0.6592    0.0000 H         1 <0>        0.00000
     19 H2          4.0145   -0.6592    0.0000 H         1 <0>        0.00000
     20 H3          2.5856   -0.6592    0.0000 H         1 <0>        0.00000
     21 H4          2.5856   -0.6592    0.0000 H         1 <0>        0.00000
     22 H5          4.0145   -1.4842    0.0000 H         1 <0>        0.00000
     23 H6          4.0145   -1.4842    0.0000 H         1 <0>        0.00000
     24 H7          2.5856   -1.4842    0.0000 H         1 <0>        0.00000
     25 H8          2.5856   -1.4842    0.0000 H         1 <0>        0.00000
     26 H9          2.0625    0.4678    0.0000 H         1 <0>        0.00000
     27 H10         2.0625    0.4678    0.0000 H         1 <0>        0.00000
     28 H11         3.3001    1.1823    0.0000 H         1 <0>        0.00000
     29 H12         3.3001    1.1823    0.0000 H         1 <0>        0.00000
     30 H13         3.3001   -1.8967    0.0000 H         1 <0>        0.00000
     31 H14         3.3001   -1.8967    0.0000 H         1 <0>        0.00000
     32 H15         1.6500    1.1823    0.0000 H         1 <0>        0.00000
     33 H16         1.6500    1.1823    0.0000 H         1 <0>        0.00000
     34 H17         2.8876    1.8967    0.0000 H         1 <0>        0.00000
     35 H18         2.8876    1.8967    0.0000 H         1 <0>        0.00000
     36 H19         2.0625    1.8967    0.0000 H         1 <0>        0.00000
     37 H20         2.0625    1.8967    0.0000 H         1 <0>        0.00000
     38 H21         4.3027    0.8285    0.0000 H         1 <0>        0.00000
     39 H22         5.1272    0.8573    0.0000 H         1 <0>        0.00000
     40 H23         5.4094    0.0821    0.0000 H         1 <0>        0.00000
@<TRIPOS>BOND
     1    1   11 1
     2    1   17 1
     3    2    3 1
     4    2    8 1
     5    2    9 1
     6    3    4 1
     7    3    5 1
     8    3   11 1
     9    4    6 1
    10    5    7 1
    11    6   10 1
    12    7   10 1
    13    8   12 1
    14    9   13 1
    15   11   15 2
    16   12   14 1
    17   13   14 1
    18   15   16 1
    19   16   17 2
    20    4   18 1
    21    4   19 1
    22    5   20 1
    23    5   21 1
    24    6   22 1
    25    6   23 1
    26    7   24 1
    27    7   25 1
    28    8   26 1
    29    8   27 1
    30    9   28 1
    31    9   29 1
    32   10   30 1
    33   10   31 1
    34   12   32 1
    35   12   33 1
    36   13   34 1
    37   13   35 1
    38   14   36 1
    39   14   37 1
    40   15   38 1
    41   16   39 1
    42   17   40 1
@<TRIPOS>SUBSTRUCTURE
     1 <0>         1 GROUP 0 A     ****
@<TRIPOS>MOLECULE
PGJ
   49    52     1     0     0
SMALL
NO_CHARGES

@<TRIPOS>ATOM
      1 C1         -0.6226   -1.1311    0.0000 C.ar      1 <0>        0.00000
      2 N1          0.0448   -1.6160    0.0000 N.pl3     1 <0>        0.00000
      3 O1         -0.2101   -2.4006    0.0000 O.3       1 <0>        0.00000
      4 C2         -1.0351   -2.4006    0.0000 C.ar      1 <0>        0.00000
      5 C3         -1.2901   -1.6160    0.0000 C.ar      1 <0>        0.00000
      6 C4          0.8294   -1.3611    0.0000 C.3       1 <0>        0.00000
      7 O2          1.4425   -1.9131    0.0000 O.3       1 <0>        0.00000
      8 C5          2.2272   -1.6582    0.0000 C.3       1 <0>        0.00000
      9 C6          2.8403   -2.2102    0.0000 C.3       1 <0>        0.00000
     10 C7         -0.6226   -0.3061    0.0000 C.ar      1 <0>        0.00000
     11 C8         -1.3371    0.1064    0.0000 C.ar      1 <0>        0.00000
     12 C9         -1.3371    0.9314    0.0000 C.ar      1 <0>        0.00000
     13 N2         -0.6226    1.3439    0.0000 N.ar      1 <0>        0.00000
     14 C10         0.0919    0.9314    0.0000 C.ar      1 <0>        0.00000
     15 N3          0.0919    0.1064    0.0000 N.ar      1 <0>        0.00000
     16 O3          0.8063    1.3439    0.0000 O.3       1 <0>        0.00000
     17 C11         0.8063    2.1689    0.0000 C.ar      1 <0>        0.00000
     18 C12         0.0919    2.5814    0.0000 C.ar      1 <0>        0.00000
     19 C13         0.0919    3.4064    0.0000 C.ar      1 <0>        0.00000
     20 C14         0.8063    3.8189    0.0000 C.ar      1 <0>        0.00000
     21 C15         1.5208    3.4064    0.0000 C.ar      1 <0>        0.00000
     22 C16         1.5208    2.5814    0.0000 C.ar      1 <0>        0.00000
     23 O4          2.2353    2.1689    0.0000 O.3       1 <0>        0.00000
     24 C17        -2.0747   -1.3611    0.0000 C.ar      1 <0>        0.00000
     25 C18        -2.6878   -1.9131    0.0000 C.ar      1 <0>        0.00000
     26 C19        -3.4724   -1.6582    0.0000 C.ar      1 <0>        0.00000
     27 C20        -3.6439   -0.8512    0.0000 C.ar      1 <0>        0.00000
     28 C21        -3.0308   -0.2992    0.0000 C.ar      1 <0>        0.00000
     29 C22        -2.2462   -0.5541    0.0000 C.ar      1 <0>        0.00000
     30 F1         -4.4285   -0.5963    0.0000 F         1 <0>        0.00000
     31 O5         -1.5200   -3.0681    0.0000 O.2       1 <0>        0.00000
     32 H1          0.8294   -1.3611    0.0000 H         1 <0>        0.00000
     33 H2          0.8294   -1.3611    0.0000 H         1 <0>        0.00000
     34 H3          2.2272   -1.6582    0.0000 H         1 <0>        0.00000
     35 H4          2.2272   -1.6582    0.0000 H         1 <0>        0.00000
     36 H5          2.8403   -2.2102    0.0000 H         1 <0>        0.00000
     37 H6          2.8403   -2.2102    0.0000 H         1 <0>        0.00000
     38 H7          2.8403   -2.2102    0.0000 H         1 <0>        0.00000
     39 H8         -1.3371    0.1064    0.0000 H         1 <0>        0.00000
     40 H9         -1.3371    0.9314    0.0000 H         1 <0>        0.00000
     41 H10         0.0919    2.5814    0.0000 H         1 <0>        0.00000
     42 H11         0.0919    3.4064    0.0000 H         1 <0>        0.00000
     43 H12         0.8063    3.8189    0.0000 H         1 <0>        0.00000
     44 H13         1.5208    3.4064    0.0000 H         1 <0>        0.00000
     45 H14         2.2353    2.1689    0.0000 H         1 <0>        0.00000
     46 H15        -2.6878   -1.9131    0.0000 H         1 <0>        0.00000
     47 H16        -3.4724   -1.6582    0.0000 H         1 <0>        0.00000
     48 H17        -3.0308   -0.2992    0.0000 H         1 <0>        0.00000
     49 H18        -2.2462   -0.5541    0.0000 H         1 <0>        0.00000
@<TRIPOS>BOND
     1    1    2 1
     2    1    5 2
     3    1   10 1
     4    2    3 1
     5    2    6 1
     6    3    4 1
     7    4    5 1
     8    4   31 2
     9    5   24 1
    10    6    7 1
    11    7    8 1
    12    8    9 1
    13   10   11 ar
    14   10   15 ar
    15   11   12 ar
    16   12   13 ar
    17   13   14 ar
    18   14   15 ar
    19   14   16 1
    20   16   17 1
    21   17   18 ar
    22   17   22 ar
    23   18   19 ar
    24   19   20 ar
    25   20   21 ar
    26   21   22 ar
    27   22   23 1
    28   24   25 ar
    29   24   29 ar
    30   25   26 ar
    31   26   27 ar
    32   27   28 ar
    33   27   30 1
    34   28   29 ar
    35    6   32 1
    36    6   33 1
    37    8   34 1
    38    8   35 1
    39    9   36 1
    40    9   37 1
    41    9   38 1
    42   11   39 1
    43   12   40 1
    44   18   41 1
    45   19   42 1
    46   20   43 1
    47   21   44 1
    48   23   45 1
    49   25   46 1
    50   26   47 1
    51   28   48 1
    52   29   49 1
@<TRIPOS>SUBSTRUCTURE
     1 <0>         1 GROUP 0 A     ****
@<TRIPOS>MOLECULE
ZST
   41    44     1     0     0
SMALL
NO_CHARGES

@<TRIPOS>ATOM
      1 C1         -1.9032    0.4637    0.0000 C.ar      1 <0>        0.00000
      2 O1         -2.3157    1.1781    0.0000 O.2       1 <0>        0.00000
      3 C2         -2.3157   -0.2508    0.0000 C.ar      1 <0>        0.00000
      4 C3         -1.9032   -0.9653    0.0000 C.ar      1 <0>        0.00000
      5 C4         -1.0782   -0.9653    0.0000 C.ar      1 <0>        0.00000
      6 C5         -3.1407   -0.2508    0.0000 C.ar      1 <0>        0.00000
      7 C6         -3.5532   -0.9653    0.0000 C.ar      1 <0>        0.00000
      8 C7         -3.1407   -1.6798    0.0000 C.ar      1 <0>        0.00000
      9 C8         -2.3157   -1.6798    0.0000 C.ar      1 <0>        0.00000
     10 N1         -1.0782    0.4637    0.0000 N.am      1 <0>        0.00000
     11 N2         -0.6657   -0.2508    0.0000 N.ar      1 <0>        0.00000
     12 C9         -0.6657    1.1781    0.0000 C.3       1 <0>        0.00000
     13 C10         0.1593    1.1781    0.0000 C.ar      1 <0>        0.00000
     14 C11         1.4288    0.7656    0.0000 C.ar      1 <0>        0.00000
     15 C12         1.4288    1.5906    0.0000 C.ar      1 <0>        0.00000
     16 C13         2.1433    0.3531    0.0000 C.ar      1 <0>        0.00000
     17 C14         2.8578    0.7656    0.0000 C.ar      1 <0>        0.00000
     18 C15         2.8578    1.5906    0.0000 C.ar      1 <0>        0.00000
     19 C16         2.1433    2.0031    0.0000 C.ar      1 <0>        0.00000
     20 N3          0.6442    1.8456    0.0000 N.ar      1 <0>        0.00000
     21 S1          0.6442    0.5107    0.0000 S.3       1 <0>        0.00000
     22 C17        -0.6657   -1.6798    0.0000 C.3       1 <0>        0.00000
     23 C18         0.1593   -1.6798    0.0000 C.2       1 <0>        0.00000
     24 O2          0.5718   -0.9653    0.0000 O.2       1 <0>        0.00000
     25 O3          0.5718   -2.3942    0.0000 O.3       1 <0>        0.00000
     26 C19         3.5722    2.0031    0.0000 C.3       1 <0>        0.00000
     27 F1          4.2867    2.4156    0.0000 F         1 <0>        0.00000
     28 F2          3.9847    1.2887    0.0000 F         1 <0>        0.00000
     29 F3          3.1597    2.7176    0.0000 F         1 <0>        0.00000
     30 H1         -3.1407   -0.2508    0.0000 H         1 <0>        0.00000
     31 H2         -3.5532   -0.9653    0.0000 H         1 <0>        0.00000
     32 H3         -3.1407   -1.6798    0.0000 H         1 <0>        0.00000
     33 H4         -2.3157   -1.6798    0.0000 H         1 <0>        0.00000
     34 H5         -0.6657    1.1781    0.0000 H         1 <0>        0.00000
     35 H6         -0.6657    1.1781    0.0000 H         1 <0>        0.00000
     36 H7          2.1433    0.3531    0.0000 H         1 <0>        0.00000
     37 H8          2.8578    0.7656    0.0000 H         1 <0>        0.00000
     38 H9          2.1433    2.0031    0.0000 H         1 <0>        0.00000
     39 H10        -0.6657   -1.6798    0.0000 H         1 <0>        0.00000
     40 H11        -0.6657   -1.6798    0.0000 H         1 <0>        0.00000
     41 H12         0.5718   -2.3942    0.0000 H         1 <0>        0.00000
@<TRIPOS>BOND
     1    1    2 2
     2    1    3 1
     3    1   10 am
     4    3    4 ar
     5    3    6 ar
     6    4    5 1
     7    4    9 ar
     8    5   11 2
     9    5   22 1
    10    6    7 ar
    11    7    8 ar
    12    8    9 ar
    13   10   11 1
    14   10   12 1
    15   12   13 1
    16   13   20 2
    17   13   21 1
    18   14   15 ar
    19   14   16 ar
    20   14   21 1
    21   15   19 ar
    22   15   20 1
    23   16   17 ar
    24   17   18 ar
    25   18   19 ar
    26   18   26 1
    27   22   23 1
    28   23   24 2
    29   23   25 1
    30   26   27 1
    31   26   28 1
    32   26   29 1
    33    6   30 1
    34    7   31 1
    35    8   32 1
    36    9   33 1
    37   12   34 1
    38   12   35 1
    39   16   36 1
    40   17   37 1
    41   19   38 1
    42   22   39 1
    43   22   40 1
    44   25   41 1
@<TRIPOS>SUBSTRUCTURE
     1 <0>         1 GROUP 0 A     ****
@<TRIPOS>MOLECULE
*****
   71    71     1     0     0
SMALL
NO_CHARGES

@<TRIPOS>ATOM
      1 Cl1        10.7879    5.4274    0.0000 Cl        1 <0>        0.00000
      2 O1          7.9804    5.4616    0.0000 O.2       1 <0>        0.00000
      3 O2          8.6949    9.1742    0.0000 O.2       1 <0>        0.00000
      4 O3          0.4430    5.4274    0.0000 O.3       1 <0>        0.00000
      5 N1          4.4080    4.2241    0.0000 N.3       1 <0>        0.00000
      6 N2          6.5514    5.4616    0.0000 N.am      1 <0>        0.00000
      7 N3          7.2659    9.1742    0.0000 N.am      1 <0>        0.00000
      8 C1          5.1225    4.6366    0.0000 C.3       1 <0>        0.00000
      9 C2          5.8369    4.2241    0.0000 C.3       1 <0>        0.00000
     10 C3          5.1225    5.4616    0.0000 C.3       1 <0>        0.00000
     11 C4          6.5514    4.6366    0.0000 C.3       1 <0>        0.00000
     12 C5          5.8369    5.8741    0.0000 C.3       1 <0>        0.00000
     13 C6          4.4080    3.3991    0.0000 C.3       1 <0>        0.00000
     14 C7          3.6934    4.6366    0.0000 C.3       1 <0>        0.00000
     15 C8          7.2659    5.8741    0.0000 C.2       1 <0>        0.00000
     16 C9          3.6934    2.9866    0.0000 C.3       1 <0>        0.00000
     17 C10         7.2659    6.6991    0.0000 C.ar      1 <0>        0.00000
     18 C11         3.6934    2.1615    0.0000 C.ar      1 <0>        0.00000
     19 C12         6.5514    7.1117    0.0000 C.ar      1 <0>        0.00000
     20 C13         7.9804    7.1117    0.0000 C.ar      1 <0>        0.00000
     21 C14         6.5514    7.9367    0.0000 C.ar      1 <0>        0.00000
     22 C15         7.9804    7.9367    0.0000 C.ar      1 <0>        0.00000
     23 C16         7.2659    8.3492    0.0000 C.ar      1 <0>        0.00000
     24 C17         2.9790    1.7490    0.0000 C.ar      1 <0>        0.00000
     25 C18         4.4080    1.7490    0.0000 C.ar      1 <0>        0.00000
     26 C19         5.8369    8.3492    0.0000 C.3       1 <0>        0.00000
     27 C20         8.6949    8.3492    0.0000 C.3       1 <0>        0.00000
     28 C21         2.9790    0.9240    0.0000 C.ar      1 <0>        0.00000
     29 C22         4.4080    0.9240    0.0000 C.ar      1 <0>        0.00000
     30 C23         3.6934    0.5115    0.0000 C.ar      1 <0>        0.00000
     31 C24         7.9804    9.5867    0.0000 C.2       1 <0>        0.00000
     32 C25         7.9804   10.4117    0.0000 C.3       1 <0>        0.00000
     33 C26         8.6949   10.8242    0.0000 C.3       1 <0>        0.00000
     34 H1         10.7879    5.4274    0.0000 H         1 <0>        0.00000
     35 H2          0.4430    5.4274    0.0000 H         1 <0>        0.00000
     36 H3          0.4430    5.4274    0.0000 H         1 <0>        0.00000
     37 H4          7.2659    9.1742    0.0000 H         1 <0>        0.00000
     38 H5          5.1225    4.6366    0.0000 H         1 <0>        0.00000
     39 H6          5.8369    4.2241    0.0000 H         1 <0>        0.00000
     40 H7          5.8369    4.2241    0.0000 H         1 <0>        0.00000
     41 H8          5.1225    5.4616    0.0000 H         1 <0>        0.00000
     42 H9          5.1225    5.4616    0.0000 H         1 <0>        0.00000
     43 H10         6.5514    4.6366    0.0000 H         1 <0>        0.00000
     44 H11         6.5514    4.6366    0.0000 H         1 <0>        0.00000
     45 H12         5.8369    5.8741    0.0000 H         1 <0>        0.00000
     46 H13         5.8369    5.8741    0.0000 H         1 <0>        0.00000
     47 H14         4.4080    3.3991    0.0000 H         1 <0>        0.00000
     48 H15         4.4080    3.3991    0.0000 H         1 <0>        0.00000
     49 H16         3.6934    4.6366    0.0000 H         1 <0>        0.00000
     50 H17         3.6934    4.6366    0.0000 H         1 <0>        0.00000
     51 H18         3.6934    4.6366    0.0000 H         1 <0>        0.00000
     52 H19         3.6934    2.9866    0.0000 H         1 <0>        0.00000
     53 H20         3.6934    2.9866    0.0000 H         1 <0>        0.00000
     54 H21         6.5514    7.1117    0.0000 H         1 <0>        0.00000
     55 H22         7.9804    7.1117    0.0000 H         1 <0>        0.00000
     56 H23         2.9790    1.7490    0.0000 H         1 <0>        0.00000
     57 H24         4.4080    1.7490    0.0000 H         1 <0>        0.00000
     58 H25         5.8369    8.3492    0.0000 H         1 <0>        0.00000
     59 H26         5.8369    8.3492    0.0000 H         1 <0>        0.00000
     60 H27         5.8369    8.3492    0.0000 H         1 <0>        0.00000
     61 H28         8.6949    8.3492    0.0000 H         1 <0>        0.00000
     62 H29         8.6949    8.3492    0.0000 H         1 <0>        0.00000
     63 H30         8.6949    8.3492    0.0000 H         1 <0>        0.00000
     64 H31         2.9790    0.9240    0.0000 H         1 <0>        0.00000
     65 H32         4.4080    0.9240    0.0000 H         1 <0>        0.00000
     66 H33         3.6934    0.5115    0.0000 H         1 <0>        0.00000
     67 H34         7.9804   10.4117    0.0000 H         1 <0>        0.00000
     68 H35         7.9804   10.4117    0.0000 H         1 <0>        0.00000
     69 H36         8.6949   10.8242    0.0000 H         1 <0>        0.00000
     70 H37         8.6949   10.8242    0.0000 H         1 <0>        0.00000
     71 H38         8.6949   10.8242    0.0000 H         1 <0>        0.00000
@<TRIPOS>BOND
     1    2   15 2
     2    3   31 2
     3    5    8 1
     4    5   13 1
     5    5   14 1
     6    6   11 1
     7    6   12 1
     8    6   15 am
     9    7   23 1
    10    7   31 am
    11    8    9 1
    12    8   10 1
    13    9   11 1
    14   10   12 1
    15   13   16 1
    16   15   17 1
    17   16   18 1
    18   17   19 ar
    19   17   20 ar
    20   18   24 ar
    21   18   25 ar
    22   19   21 ar
    23   20   22 ar
    24   21   23 ar
    25   21   26 1
    26   22   23 ar
    27   22   27 1
    28   24   28 ar
    29   25   29 ar
    30   28   30 ar
    31   29   30 ar
    32   31   32 1
    33   32   33 1
    34    1   34 1
    35    4   35 1
    36    4   36 1
    37    7   37 1
    38    8   38 1
    39    9   39 1
    40    9   40 1
    41   10   41 1
    42   10   42 1
    43   11   43 1
    44   11   44 1
    45   12   45 1
    46   12   46 1
    47   13   47 1
    48   13   48 1
    49   14   49 1
    50   14   50 1
    51   14   51 1
    52   16   52 1
    53   16   53 1
    54   19   54 1
    55   20   55 1
    56   24   56 1
    57   25   57 1
    58   26   58 1
    59   26   59 1
    60   26   60 1
    61   27   61 1
    62   27   62 1
    63   27   63 1
    64   28   64 1
    65   29   65 1
    66   30   66 1
    67   32   67 1
    68   32   68 1
    69   33   69 1
    70   33   70 1
    71   33   71 1
@<TRIPOS>SUBSTRUCTURE
     1 <0>         1 GROUP 0 A     ****
@<TRIPOS>MOLECULE
367
   51    54     1     0     0
SMALL
NO_CHARGES

@<TRIPOS>ATOM
      1 O1          6.6263    1.5550    0.0000 O.3       1 <0>        0.00000
      2 O2          1.6500   -1.9996    0.0000 O.2       1 <0>        0.00000
      3 C1          6.0993    0.5186    0.0000 C.3       1 <0>        0.00000
      4 C2          6.0993   -0.3064    0.0000 C.3       1 <0>        0.00000
      5 C3          5.3849   -0.7189    0.0000 C.3       1 <0>        0.00000
      6 C4          4.6703   -0.3064    0.0000 C.3       1 <0>        0.00000
      7 C5          6.8799    0.7700    0.0000 C.3       1 <0>        0.00000
      8 C6          5.3849    0.9311    0.0000 C.3       1 <0>        0.00000
      9 C7          6.8799   -0.5579    0.0000 C.3       1 <0>        0.00000
     10 C8          4.6703    0.5186    0.0000 C.3       1 <0>        0.00000
     11 C9          3.9196   -0.7246    0.0000 C.3       1 <0>        0.00000
     12 C10         7.3614    0.1061    0.0000 C.3       1 <0>        0.00000
     13 C11         5.3981   -1.5782    0.0000 C.3       1 <0>        0.00000
     14 C12         6.0993    1.3436    0.0000 C.3       1 <0>        0.00000
     15 C13         4.6572   -2.0136    0.0000 C.3       1 <0>        0.00000
     16 C14         3.9130   -1.5839    0.0000 C.2       1 <0>        0.00000
     17 C15         3.1550   -0.2592    0.0000 C.3       1 <0>        0.00000
     18 C16         5.3849    1.7561    0.0000 C.3       1 <0>        0.00000
     19 C17         7.5482    1.2538    0.0000 C.1       1 <0>        0.00000
     20 C18         2.3729   -0.6948    0.0000 C.3       1 <0>        0.00000
     21 C19         3.1413   -2.0374    0.0000 C.2       1 <0>        0.00000
     22 C20         2.3660   -1.5899    0.0000 C.2       1 <0>        0.00000
     23 C21         8.2165    1.7375    0.0000 C.1       1 <0>        0.00000
     24 H1          6.1691   -0.9628    0.0000 H         1 <0>        0.00000
     25 H2          5.9589   -1.0445    0.0000 H         1 <0>        0.00000
     26 H3          5.2420    0.0236    0.0000 H         1 <0>        0.00000
     27 H4          3.9323   -0.0647    0.0000 H         1 <0>        0.00000
     28 H5          6.6263    1.5550    0.0000 H         1 <0>        0.00000
     29 H6          5.3849    0.9311    0.0000 H         1 <0>        0.00000
     30 H7          5.3849    0.9311    0.0000 H         1 <0>        0.00000
     31 H8          6.8799   -0.5579    0.0000 H         1 <0>        0.00000
     32 H9          6.8799   -0.5579    0.0000 H         1 <0>        0.00000
     33 H10         4.6703    0.5186    0.0000 H         1 <0>        0.00000
     34 H11         4.6703    0.5186    0.0000 H         1 <0>        0.00000
     35 H12         7.3614    0.1061    0.0000 H         1 <0>        0.00000
     36 H13         7.3614    0.1061    0.0000 H         1 <0>        0.00000
     37 H14         5.3981   -1.5782    0.0000 H         1 <0>        0.00000
     38 H15         5.3981   -1.5782    0.0000 H         1 <0>        0.00000
     39 H16         6.0993    1.3436    0.0000 H         1 <0>        0.00000
     40 H17         6.0993    1.3436    0.0000 H         1 <0>        0.00000
     41 H18         4.6572   -2.0136    0.0000 H         1 <0>        0.00000
     42 H19         4.6572   -2.0136    0.0000 H         1 <0>        0.00000
     43 H20         3.1550   -0.2592    0.0000 H         1 <0>        0.00000
     44 H21         3.1550   -0.2592    0.0000 H         1 <0>        0.00000
     45 H22         5.3849    1.7561    0.0000 H         1 <0>        0.00000
     46 H23         5.3849    1.7561    0.0000 H         1 <0>        0.00000
     47 H24         5.3849    1.7561    0.0000 H         1 <0>        0.00000
     48 H25         2.3729   -0.6948    0.0000 H         1 <0>        0.00000
     49 H26         2.3729   -0.6948    0.0000 H         1 <0>        0.00000
     50 H27         3.1413   -2.0374    0.0000 H         1 <0>        0.00000
     51 H28         8.2165    1.7375    0.0000 H         1 <0>        0.00000
@<TRIPOS>BOND
     1    1    7 1
     2    2   22 2
     3    3    4 1
     4    3    7 1
     5    3    8 1
     6    3   14 1
     7    4    5 1
     8    4    9 1
     9    4   24 1
    10    5    6 1
    11    5   13 1
    12    5   25 1
    13    6   10 1
    14    6   11 1
    15    6   26 1
    16    7   12 1
    17    7   19 1
    18    8   10 1
    19    9   12 1
    20   11   16 1
    21   11   17 1
    22   11   27 1
    23   13   15 1
    24   14   18 1
    25   15   16 1
    26   16   21 2
    27   17   20 1
    28   19   23 3
    29   20   22 1
    30   21   22 1
    31    1   28 1
    32    8   29 1
    33    8   30 1
    34    9   31 1
    35    9   32 1
    36   10   33 1
    37   10   34 1
    38   12   35 1
    39   12   36 1
    40   13   37 1
    41   13   38 1
    42   14   39 1
    43   14   40 1
    44   15   41 1
    45   15   42 1
    46   17   43 1
    47   17   44 1
    48   18   45 1
    49   18   46 1
    50   18   47 1
    51   20   48 1
    52   20   49 1
    53   21   50 1
    54   23   51 1
@<TRIPOS>SUBSTRUCTURE
     1 <0>         1 GROUP 0 A     ****
@<TRIPOS>MOLECULE
PGX
   58    59     1     0     0
SMALL
NO_CHARGES

@<TRIPOS>ATOM
      1 C1          1.0661   -4.1518    0.0000 C.2       1 <0>        0.00000
      2 C2          0.7985   -3.3714    0.0000 C.3       1 <0>        0.00000
      3 C3         -0.0112   -3.2130    0.0000 C.3       1 <0>        0.00000
      4 C4         -0.2788   -2.4326    0.0000 C.3       1 <0>        0.00000
      5 C5          0.2632   -1.8106    0.0000 C.2       1 <0>        0.00000
      6 C6         -0.0044   -1.0302    0.0000 C.2       1 <0>        0.00000
      7 C7         -0.8141   -0.8718    0.0000 C.3       1 <0>        0.00000
      8 C8         -1.0817   -0.0914    0.0000 C.3       1 <0>        0.00000
      9 C9         -1.8122    0.2789    0.0000 C.3       1 <0>        0.00000
     10 C10        -1.7421    1.8147    0.0000 C.3       1 <0>        0.00000
     11 C11        -1.5821    0.9993    0.0000 C.3       1 <0>        0.00000
     12 C12        -0.7866    0.5340    0.0000 C.3       1 <0>        0.00000
     13 C13         0.0015    0.7780    0.0000 C.2       1 <0>        0.00000
     14 C14         0.6069    0.2176    0.0000 C.2       1 <0>        0.00000
     15 C15         1.3950    0.4616    0.0000 C.3       1 <0>        0.00000
     16 C16         1.5776    1.2662    0.0000 C.3       1 <0>        0.00000
     17 C17         0.9722    1.8266    0.0000 C.3       1 <0>        0.00000
     18 C18         1.1549    2.6311    0.0000 C.3       1 <0>        0.00000
     19 C19         0.5495    3.1916    0.0000 C.3       1 <0>        0.00000
     20 C20         0.7322    3.9961    0.0000 C.3       1 <0>        0.00000
     21 O1          1.8757   -4.3102    0.0000 O.2       1 <0>        0.00000
     22 O2          0.5241   -4.7737    0.0000 O.3       1 <0>        0.00000
     23 O3         -2.5877   -0.1114    0.0000 O.3       1 <0>        0.00000
     24 O4         -2.2224    0.5491    0.0000 O.3       1 <0>        0.00000
     25 O5          2.0004   -0.0988    0.0000 O.3       1 <0>        0.00000
     26 O6          1.8177   -0.9033    0.0000 O.3       1 <0>        0.00000
     27 H1         -1.5222   -0.4747    0.0000 H         1 <0>        0.00000
     28 H2         -1.8130   -0.3051    0.0000 H         1 <0>        0.00000
     29 H3         -1.4055    1.5559    0.0000 H         1 <0>        0.00000
     30 H4         -0.4037    0.0931    0.0000 H         1 <0>        0.00000
     31 H5          0.9665    0.8583    0.0000 H         1 <0>        0.00000
     32 H6          0.7985   -3.3714    0.0000 H         1 <0>        0.00000
     33 H7          0.7985   -3.3714    0.0000 H         1 <0>        0.00000
     34 H8         -0.0112   -3.2130    0.0000 H         1 <0>        0.00000
     35 H9         -0.0112   -3.2130    0.0000 H         1 <0>        0.00000
     36 H10        -0.2788   -2.4326    0.0000 H         1 <0>        0.00000
     37 H11        -0.2788   -2.4326    0.0000 H         1 <0>        0.00000
     38 H12         0.2632   -1.8106    0.0000 H         1 <0>        0.00000
     39 H13        -0.0044   -1.0302    0.0000 H         1 <0>        0.00000
     40 H14        -0.8141   -0.8718    0.0000 H         1 <0>        0.00000
     41 H15        -0.8141   -0.8718    0.0000 H         1 <0>        0.00000
     42 H16        -1.7421    1.8147    0.0000 H         1 <0>        0.00000
     43 H17        -1.7421    1.8147    0.0000 H         1 <0>        0.00000
     44 H18         0.0015    0.7780    0.0000 H         1 <0>        0.00000
     45 H19         0.6069    0.2176    0.0000 H         1 <0>        0.00000
     46 H20         1.5776    1.2662    0.0000 H         1 <0>        0.00000
     47 H21         1.5776    1.2662    0.0000 H         1 <0>        0.00000
     48 H22         0.9722    1.8266    0.0000 H         1 <0>        0.00000
     49 H23         0.9722    1.8266    0.0000 H         1 <0>        0.00000
     50 H24         1.1549    2.6311    0.0000 H         1 <0>        0.00000
     51 H25         1.1549    2.6311    0.0000 H         1 <0>        0.00000
     52 H26         0.5495    3.1916    0.0000 H         1 <0>        0.00000
     53 H27         0.5495    3.1916    0.0000 H         1 <0>        0.00000
     54 H28         0.7322    3.9961    0.0000 H         1 <0>        0.00000
     55 H29         0.7322    3.9961    0.0000 H         1 <0>        0.00000
     56 H30         0.7322    3.9961    0.0000 H         1 <0>        0.00000
     57 H31         0.5241   -4.7737    0.0000 H         1 <0>        0.00000
     58 H32         1.8177   -0.9033    0.0000 H         1 <0>        0.00000
@<TRIPOS>BOND
     1    1    2 1
     2    1   21 2
     3    1   22 1
     4    2    3 1
     5    3    4 1
     6    4    5 1
     7    5    6 2
     8    6    7 1
     9    7    8 1
    10    8    9 1
    11    8   12 1
    12    8   27 1
    13    9   10 1
    14    9   23 1
    15    9   28 1
    16   10   11 1
    17   11   12 1
    18   11   24 1
    19   11   29 1
    20   12   13 1
    21   12   30 1
    22   13   14 2
    23   14   15 1
    24   15   16 1
    25   15   25 1
    26   15   31 1
    27   16   17 1
    28   17   18 1
    29   18   19 1
    30   19   20 1
    31   23   24 1
    32   25   26 1
    33    2   32 1
    34    2   33 1
    35    3   34 1
    36    3   35 1
    37    4   36 1
    38    4   37 1
    39    5   38 1
    40    6   39 1
    41    7   40 1
    42    7   41 1
    43   10   42 1
    44   10   43 1
    45   13   44 1
    46   14   45 1
    47   16   46 1
    48   16   47 1
    49   17   48 1
    50   17   49 1
    51   18   50 1
    52   18   51 1
    53   19   52 1
    54   19   53 1
    55   20   54 1
    56   20   55 1
    57   20   56 1
    58   22   57 1
    59   26   58 1
@<TRIPOS>SUBSTRUCTURE
     1 <0>         1 GROUP 0 A     ****
@<TRIPOS>MOLECULE
CP8
   46    49     1     0     0
SMALL
NO_CHARGES

@<TRIPOS>ATOM
      1 C1         -1.8244   -1.8572    0.0000 C.ar      1 <0>        0.00000
      2 C2         -1.8244   -1.0322    0.0000 C.ar      1 <0>        0.00000
      3 N1         -2.6090   -2.1122    0.0000 N.pl3     1 <0>        0.00000
      4 C3         -1.1099   -2.2697    0.0000 C.ar      1 <0>        0.00000
      5 C4         -1.1099   -0.6197    0.0000 C.ar      1 <0>        0.00000
      6 C5         -2.6090   -0.7773    0.0000 C.3       1 <0>        0.00000
      7 S1         -3.0940   -1.4447    0.0000 S.o2      1 <0>        0.00000
      8 C6         -2.8640   -2.8968    0.0000 C.3       1 <0>        0.00000
      9 C7         -0.3955   -1.8572    0.0000 C.ar      1 <0>        0.00000
     10 C8         -0.3955   -1.0322    0.0000 C.ar      1 <0>        0.00000
     11 O1         -3.8127   -1.8497    0.0000 O.2       1 <0>        0.00000
     12 O2         -3.8127   -1.0398    0.0000 O.2       1 <0>        0.00000
     13 C9          0.3190   -0.6197    0.0000 C.3       1 <0>        0.00000
     14 C10         0.3190    0.2053    0.0000 C.3       1 <0>        0.00000
     15 O3          1.0335   -1.0322    0.0000 O.3       1 <0>        0.00000
     16 N2          1.0335    0.6178    0.0000 N.am      1 <0>        0.00000
     17 C11         1.7479   -0.6197    0.0000 C.3       1 <0>        0.00000
     18 C12         1.0335    1.4428    0.0000 C.3       1 <0>        0.00000
     19 C13         1.7479    0.2053    0.0000 C.2       1 <0>        0.00000
     20 C14         1.7479    1.8553    0.0000 C.ar      1 <0>        0.00000
     21 O4          2.4624    0.6178    0.0000 O.2       1 <0>        0.00000
     22 C15         1.7479    2.6803    0.0000 C.ar      1 <0>        0.00000
     23 C16         2.4624    1.4428    0.0000 C.ar      1 <0>        0.00000
     24 C17         2.4624    3.0928    0.0000 C.ar      1 <0>        0.00000
     25 C18         3.1769    1.8553    0.0000 C.ar      1 <0>        0.00000
     26 C19         3.1769    2.6803    0.0000 C.ar      1 <0>        0.00000
     27 H1         -0.1867   -0.3278    0.0000 H         1 <0>        0.00000
     28 H2         -1.1099   -2.2697    0.0000 H         1 <0>        0.00000
     29 H3         -1.1099   -0.6197    0.0000 H         1 <0>        0.00000
     30 H4         -2.6090   -0.7773    0.0000 H         1 <0>        0.00000
     31 H5         -2.6090   -0.7773    0.0000 H         1 <0>        0.00000
     32 H6         -2.8640   -2.8968    0.0000 H         1 <0>        0.00000
     33 H7         -2.8640   -2.8968    0.0000 H         1 <0>        0.00000
     34 H8         -2.8640   -2.8968    0.0000 H         1 <0>        0.00000
     35 H9         -0.3955   -1.8572    0.0000 H         1 <0>        0.00000
     36 H10         0.3190    0.2053    0.0000 H         1 <0>        0.00000
     37 H11         0.3190    0.2053    0.0000 H         1 <0>        0.00000
     38 H12         1.7479   -0.6197    0.0000 H         1 <0>        0.00000
     39 H13         1.7479   -0.6197    0.0000 H         1 <0>        0.00000
     40 H14         1.0335    1.4428    0.0000 H         1 <0>        0.00000
     41 H15         1.0335    1.4428    0.0000 H         1 <0>        0.00000
     42 H16         1.7479    2.6803    0.0000 H         1 <0>        0.00000
     43 H17         2.4624    1.4428    0.0000 H         1 <0>        0.00000
     44 H18         2.4624    3.0928    0.0000 H         1 <0>        0.00000
     45 H19         3.1769    1.8553    0.0000 H         1 <0>        0.00000
     46 H20         3.1769    2.6803    0.0000 H         1 <0>        0.00000
@<TRIPOS>BOND
     1    1    2 ar
     2    1    3 1
     3    1    4 ar
     4    2    5 ar
     5    2    6 1
     6    3    7 1
     7    3    8 1
     8    4    9 ar
     9    5   10 ar
    10    6    7 1
    11    7   11 2
    12    7   12 2
    13    9   10 ar
    14   10   13 1
    15   13   14 1
    16   13   15 1
    17   13   27 1
    18   14   16 1
    19   15   17 1
    20   16   18 1
    21   16   19 am
    22   17   19 1
    23   18   20 1
    24   19   21 2
    25   20   22 ar
    26   20   23 ar
    27   22   24 ar
    28   23   25 ar
    29   24   26 ar
    30   25   26 ar
    31    4   28 1
    32    5   29 1
    33    6   30 1
    34    6   31 1
    35    8   32 1
    36    8   33 1
    37    8   34 1
    38    9   35 1
    39   14   36 1
    40   14   37 1
    41   17   38 1
    42   17   39 1
    43   18   40 1
    44   18   41 1
    45   22   42 1
    46   23   43 1
    47   24   44 1
    48   25   45 1
    49   26   46 1
@<TRIPOS>SUBSTRUCTURE
     1 <0>         1 GROUP 0 A     ****
@<TRIPOS>MOLECULE
*****
   45    46     1     0     0
SMALL
NO_CHARGES

@<TRIPOS>ATOM
      1 C1          8.2105  -13.1304    0.0000 C.ar      1 <0>        0.00000
      2 C2          9.0591  -13.1304    0.0000 C.ar      1 <0>        0.00000
      3 N1          7.9748  -13.9318    0.0000 N.ar      1 <0>        0.00000
      4 N2          9.2948  -13.9083    0.0000 N.ar      1 <0>        0.00000
      5 S1          8.6348  -14.4033    0.0000 S.3       1 <0>        0.00000
      6 N3          7.7391  -12.4940    0.0000 N.pl3     1 <0>        0.00000
      7 O1          9.5070  -12.4233    0.0000 O.3       1 <0>        0.00000
      8 N4         11.9348  -11.0090    0.0000 N.3       1 <0>        0.00000
      9 O2          6.9141  -11.0797    0.0000 O.3       1 <0>        0.00000
     10 C3         10.7091  -11.7397    0.0000 C.3       1 <0>        0.00000
     11 C4         10.3320  -12.4233    0.0000 C.3       1 <0>        0.00000
     12 C5         11.5341  -11.7397    0.0000 C.3       1 <0>        0.00000
     13 C6          6.9141  -12.4940    0.0000 C.3       1 <0>        0.00000
     14 C7          8.1398  -11.7633    0.0000 C.3       1 <0>        0.00000
     15 O3         10.3320  -11.0090    0.0000 O.3       1 <0>        0.00000
     16 C8          7.7391  -11.0797    0.0000 C.3       1 <0>        0.00000
     17 C9          6.5134  -11.7868    0.0000 C.3       1 <0>        0.00000
     18 C10        12.7626  -11.0133    0.0000 C.3       1 <0>        0.00000
     19 C11        13.1788  -10.3009    0.0000 C.3       1 <0>        0.00000
     20 C12        13.1715  -11.7298    0.0000 C.3       1 <0>        0.00000
     21 C13        13.5876  -11.0133    0.0000 C.3       1 <0>        0.00000
     22 H1         11.9348  -11.0090    0.0000 H         1 <0>        0.00000
     23 H2         10.7091  -11.7397    0.0000 H         1 <0>        0.00000
     24 H3         10.3320  -12.4233    0.0000 H         1 <0>        0.00000
     25 H4         10.3320  -12.4233    0.0000 H         1 <0>        0.00000
     26 H5         11.5341  -11.7397    0.0000 H         1 <0>        0.00000
     27 H6         11.5341  -11.7397    0.0000 H         1 <0>        0.00000
     28 H7          6.9141  -12.4940    0.0000 H         1 <0>        0.00000
     29 H8          6.9141  -12.4940    0.0000 H         1 <0>        0.00000
     30 H9          8.1398  -11.7633    0.0000 H         1 <0>        0.00000
     31 H10         8.1398  -11.7633    0.0000 H         1 <0>        0.00000
     32 H11        10.3320  -11.0090    0.0000 H         1 <0>        0.00000
     33 H12         7.7391  -11.0797    0.0000 H         1 <0>        0.00000
     34 H13         7.7391  -11.0797    0.0000 H         1 <0>        0.00000
     35 H14         6.5134  -11.7868    0.0000 H         1 <0>        0.00000
     36 H15         6.5134  -11.7868    0.0000 H         1 <0>        0.00000
     37 H16        13.1788  -10.3009    0.0000 H         1 <0>        0.00000
     38 H17        13.1788  -10.3009    0.0000 H         1 <0>        0.00000
     39 H18        13.1788  -10.3009    0.0000 H         1 <0>        0.00000
     40 H19        13.1715  -11.7298    0.0000 H         1 <0>        0.00000
     41 H20        13.1715  -11.7298    0.0000 H         1 <0>        0.00000
     42 H21        13.1715  -11.7298    0.0000 H         1 <0>        0.00000
     43 H22        13.5876  -11.0133    0.0000 H         1 <0>        0.00000
     44 H23        13.5876  -11.0133    0.0000 H         1 <0>        0.00000
     45 H24        13.5876  -11.0133    0.0000 H         1 <0>        0.00000
@<TRIPOS>BOND
     1    1    2 1
     2    1    3 2
     3    1    6 1
     4    2    4 2
     5    2    7 1
     6    3    5 1
     7    4    5 1
     8    6   13 1
     9    6   14 1
    10    7   11 1
    11    8   12 1
    12    9   16 1
    13    9   17 1
    14   10   11 1
    15   10   12 1
    16   10   15 1
    17   13   17 1
    18   14   16 1
    19    8   18 1
    20   18   19 1
    21   18   20 1
    22   18   21 1
    23    8   22 1
    24   10   23 1
    25   11   24 1
    26   11   25 1
    27   12   26 1
    28   12   27 1
    29   13   28 1
    30   13   29 1
    31   14   30 1
    32   14   31 1
    33   15   32 1
    34   16   33 1
    35   16   34 1
    36   17   35 1
    37   17   36 1
    38   19   37 1
    39   19   38 1
    40   19   39 1
    41   20   40 1
    42   20   41 1
    43   20   42 1
    44   21   43 1
    45   21   44 1
    46   21   45 1
@<TRIPOS>SUBSTRUCTURE
     1 <0>         1 GROUP 0 A     ****
@<TRIPOS>MOLECULE
SG2
   23    24     1     0     0
SMALL
NO_CHARGES

@<TRIPOS>ATOM
      1 S1          1.7711    0.8782    0.0000 S.o2      1 <0>        0.00000
      2 C1          1.0566    0.4657    0.0000 C.ar      1 <0>        0.00000
      3 C2          1.0566   -0.3593    0.0000 C.ar      1 <0>        0.00000
      4 C3          0.3421   -0.7718    0.0000 C.ar      1 <0>        0.00000
      5 C4         -0.3723   -0.3593    0.0000 C.ar      1 <0>        0.00000
      6 N1         -1.1569   -0.6142    0.0000 N.pl3     1 <0>        0.00000
      7 C5         -1.4119   -1.3988    0.0000 C.3       1 <0>        0.00000
      8 S2         -1.6419    0.0532    0.0000 S.3       1 <0>        0.00000
      9 C6         -1.1569    0.7207    0.0000 C.ar      1 <0>        0.00000
     10 O1         -1.4119    1.5053    0.0000 O.2       1 <0>        0.00000
     11 C7         -0.3723    0.4657    0.0000 C.ar      1 <0>        0.00000
     12 C8          0.3421    0.8782    0.0000 C.ar      1 <0>        0.00000
     13 N2          2.4856    1.2907    0.0000 N.pl3     1 <0>        0.00000
     14 O2          2.1836    0.1638    0.0000 O.2       1 <0>        0.00000
     15 O3          1.3586    1.5927    0.0000 O.2       1 <0>        0.00000
     16 H1          1.0566   -0.3593    0.0000 H         1 <0>        0.00000
     17 H2          0.3421   -0.7718    0.0000 H         1 <0>        0.00000
     18 H3         -1.4119   -1.3988    0.0000 H         1 <0>        0.00000
     19 H4         -1.4119   -1.3988    0.0000 H         1 <0>        0.00000
     20 H5         -1.4119   -1.3988    0.0000 H         1 <0>        0.00000
     21 H6          0.3421    0.8782    0.0000 H         1 <0>        0.00000
     22 H7          2.4856    1.2907    0.0000 H         1 <0>        0.00000
     23 H8          2.4856    1.2907    0.0000 H         1 <0>        0.00000
@<TRIPOS>BOND
     1    1    2 1
     2    1   13 1
     3    1   14 2
     4    1   15 2
     5    2    3 ar
     6    2   12 ar
     7    3    4 ar
     8    4    5 ar
     9    5    6 1
    10    5   11 ar
    11    6    7 1
    12    6    8 1
    13    8    9 1
    14    9   10 2
    15    9   11 1
    16   11   12 ar
    17    3   16 1
    18    4   17 1
    19    7   18 1
    20    7   19 1
    21    7   20 1
    22   12   21 1
    23   13   22 1
    24   13   23 1
@<TRIPOS>SUBSTRUCTURE
     1 <0>         1 GROUP 0 A     ****
@<TRIPOS>MOLECULE
918
   48    50     1     0     0
SMALL
NO_CHARGES

@<TRIPOS>ATOM
      1 S1          3.6703   -0.5207    0.0000 S.o2      1 <0>        0.00000
      2 O1          4.0828   -1.2351    0.0000 O.2       1 <0>        0.00000
      3 O2          3.2577    0.1938    0.0000 O.2       1 <0>        0.00000
      4 N1          2.9558   -0.9332    0.0000 N.pl3     1 <0>        0.00000
      5 N2          7.3088   -1.5972    0.0000 N.pl3     1 <0>        0.00000
      6 N3          8.6288    1.4693    0.0000 N.3       1 <0>        0.00000
      7 C1          2.8695   -1.7537    0.0000 C.3       1 <0>        0.00000
      8 C2          2.2021   -0.5976    0.0000 C.3       1 <0>        0.00000
      9 C3          2.0625   -1.9253    0.0000 C.3       1 <0>        0.00000
     10 C4          1.6500   -1.2107    0.0000 C.3       1 <0>        0.00000
     11 C5          4.3847   -0.1082    0.0000 C.3       1 <0>        0.00000
     12 C6          5.0993   -0.5207    0.0000 C.ar      1 <0>        0.00000
     13 C7          6.5282   -0.5207    0.0000 C.ar      1 <0>        0.00000
     14 C8          5.8137   -0.1082    0.0000 C.ar      1 <0>        0.00000
     15 C9          7.3088   -0.2693    0.0000 C.ar      1 <0>        0.00000
     16 C10         6.5282   -1.3457    0.0000 C.ar      1 <0>        0.00000
     17 C11         5.0993   -1.3457    0.0000 C.ar      1 <0>        0.00000
     18 C12         7.5652    0.5149    0.0000 C.3       1 <0>        0.00000
     19 C13         5.8137   -1.7582    0.0000 C.ar      1 <0>        0.00000
     20 C14         7.7903   -0.9332    0.0000 C.ar      1 <0>        0.00000
     21 C15         8.3724    0.6851    0.0000 C.3       1 <0>        0.00000
     22 C16         8.0778    2.0833    0.0000 C.3       1 <0>        0.00000
     23 C17         9.4361    1.6394    0.0000 C.3       1 <0>        0.00000
     24 H1          7.3088   -1.5972    0.0000 H         1 <0>        0.00000
     25 H2          2.8695   -1.7537    0.0000 H         1 <0>        0.00000
     26 H3          2.8695   -1.7537    0.0000 H         1 <0>        0.00000
     27 H4          2.2021   -0.5976    0.0000 H         1 <0>        0.00000
     28 H5          2.2021   -0.5976    0.0000 H         1 <0>        0.00000
     29 H6          2.0625   -1.9253    0.0000 H         1 <0>        0.00000
     30 H7          2.0625   -1.9253    0.0000 H         1 <0>        0.00000
     31 H8          1.6500   -1.2107    0.0000 H         1 <0>        0.00000
     32 H9          1.6500   -1.2107    0.0000 H         1 <0>        0.00000
     33 H10         4.3847   -0.1082    0.0000 H         1 <0>        0.00000
     34 H11         4.3847   -0.1082    0.0000 H         1 <0>        0.00000
     35 H12         5.8137   -0.1082    0.0000 H         1 <0>        0.00000
     36 H13         5.0993   -1.3457    0.0000 H         1 <0>        0.00000
     37 H14         7.5652    0.5149    0.0000 H         1 <0>        0.00000
     38 H15         7.5652    0.5149    0.0000 H         1 <0>        0.00000
     39 H16         5.8137   -1.7582    0.0000 H         1 <0>        0.00000
     40 H17         7.7903   -0.9332    0.0000 H         1 <0>        0.00000
     41 H18         8.3724    0.6851    0.0000 H         1 <0>        0.00000
     42 H19         8.3724    0.6851    0.0000 H         1 <0>        0.00000
     43 H20         8.0778    2.0833    0.0000 H         1 <0>        0.00000
     44 H21         8.0778    2.0833    0.0000 H         1 <0>        0.00000
     45 H22         8.0778    2.0833    0.0000 H         1 <0>        0.00000
     46 H23         9.4361    1.6394    0.0000 H         1 <0>        0.00000
     47 H24         9.4361    1.6394    0.0000 H         1 <0>        0.00000
     48 H25         9.4361    1.6394    0.0000 H         1 <0>        0.00000
@<TRIPOS>BOND
     1    1    2 2
     2    1    3 2
     3    1    4 1
     4    1   11 1
     5    4    7 1
     6    4    8 1
     7    5   16 1
     8    5   20 1
     9    6   21 1
    10    6   22 1
    11    6   23 1
    12    7    9 1
    13    8   10 1
    14    9   10 1
    15   11   12 1
    16   12   14 ar
    17   12   17 ar
    18   13   14 ar
    19   13   15 1
    20   13   16 ar
    21   15   18 1
    22   15   20 2
    23   16   19 ar
    24   17   19 ar
    25   18   21 1
    26    5   24 1
    27    7   25 1
    28    7   26 1
    29    8   27 1
    30    8   28 1
    31    9   29 1
    32    9   30 1
    33   10   31 1
    34   10   32 1
    35   11   33 1
    36   11   34 1
    37   14   35 1
    38   17   36 1
    39   18   37 1
    40   18   38 1
    41   19   39 1
    42   20   40 1
    43   21   41 1
    44   21   42 1
    45   22   43 1
    46   22   44 1
    47   22   45 1
    48   23   46 1
    49   23   47 1
    50   23   48 1
@<TRIPOS>SUBSTRUCTURE
     1 <0>         1 GROUP 0 A     ****
@<TRIPOS>MOLECULE
736
   61    65     1     0     0
SMALL
NO_CHARGES

@<TRIPOS>ATOM
      1 C1          2.3772    0.2788    0.0000 C.ar      1 <0>        0.00000
      2 N1          1.5888    0.5220    0.0000 N.ar      1 <0>        0.00000
      3 C2          0.9841   -0.0391    0.0000 C.ar      1 <0>        0.00000
      4 C3          1.1676   -0.8435    0.0000 C.ar      1 <0>        0.00000
      5 C4          1.9560   -1.0866    0.0000 C.ar      1 <0>        0.00000
      6 C5          2.5608   -0.5255    0.0000 C.ar      1 <0>        0.00000
      7 C6          0.2408    0.3188    0.0000 C.3       1 <0>        0.00000
      8 C7         -0.5025   -0.0391    0.0000 C.ar      1 <0>        0.00000
      9 C8         -0.6861   -0.8435    0.0000 C.ar      1 <0>        0.00000
     10 C9         -0.1717   -1.4885    0.0000 C.2       1 <0>        0.00000
     11 C10         0.6533   -1.4885    0.0000 C.2       1 <0>        0.00000
     12 C11        -1.1073    0.5220    0.0000 C.ar      1 <0>        0.00000
     13 C12        -1.8956    0.2788    0.0000 C.ar      1 <0>        0.00000
     14 C13        -2.0792   -0.5255    0.0000 C.ar      1 <0>        0.00000
     15 C14        -1.4745   -1.0866    0.0000 C.ar      1 <0>        0.00000
     16 C15         0.2408    1.1438    0.0000 C.3       1 <0>        0.00000
     17 C16        -0.4737    1.5563    0.0000 C.3       1 <0>        0.00000
     18 C17        -0.4737    2.3813    0.0000 C.3       1 <0>        0.00000
     19 N2          0.2408    2.7938    0.0000 N.pl3     1 <0>        0.00000
     20 C18         0.9552    2.3813    0.0000 C.3       1 <0>        0.00000
     21 C19         0.9552    1.5563    0.0000 C.3       1 <0>        0.00000
     22 Cl1        -2.8676   -0.7687    0.0000 Cl        1 <0>        0.00000
     23 S1          0.2408    3.6188    0.0000 S.o2      1 <0>        0.00000
     24 N3         -0.5297   -2.2318    0.0000 N.pl3     1 <0>        0.00000
     25 C20        -0.0649   -2.9134    0.0000 C.3       1 <0>        0.00000
     26 C21        -1.3524   -2.2934    0.0000 C.3       1 <0>        0.00000
     27 C22        -0.4229   -3.6567    0.0000 C.3       1 <0>        0.00000
     28 C23        -1.7103   -3.0367    0.0000 C.3       1 <0>        0.00000
     29 N4         -1.2456   -3.7184    0.0000 N.3       1 <0>        0.00000
     30 O1          0.2408    4.4438    0.0000 O.2       1 <0>        0.00000
     31 C24         1.0658    3.6188    0.0000 C.3       1 <0>        0.00000
     32 O2         -0.5842    3.6188    0.0000 O.2       1 <0>        0.00000
     33 H1          0.7352    0.6295    0.0000 H         1 <0>        0.00000
     34 H2          2.3772    0.2788    0.0000 H         1 <0>        0.00000
     35 H3          1.9560   -1.0866    0.0000 H         1 <0>        0.00000
     36 H4          2.5608   -0.5255    0.0000 H         1 <0>        0.00000
     37 H5          0.6533   -1.4885    0.0000 H         1 <0>        0.00000
     38 H6         -1.1073    0.5220    0.0000 H         1 <0>        0.00000
     39 H7         -1.8956    0.2788    0.0000 H         1 <0>        0.00000
     40 H8         -1.4745   -1.0866    0.0000 H         1 <0>        0.00000
     41 H9          0.2408    1.1438    0.0000 H         1 <0>        0.00000
     42 H10        -0.4737    1.5563    0.0000 H         1 <0>        0.00000
     43 H11        -0.4737    1.5563    0.0000 H         1 <0>        0.00000
     44 H12        -0.4737    2.3813    0.0000 H         1 <0>        0.00000
     45 H13        -0.4737    2.3813    0.0000 H         1 <0>        0.00000
     46 H14         0.9552    2.3813    0.0000 H         1 <0>        0.00000
     47 H15         0.9552    2.3813    0.0000 H         1 <0>        0.00000
     48 H16         0.9552    1.5563    0.0000 H         1 <0>        0.00000
     49 H17         0.9552    1.5563    0.0000 H         1 <0>        0.00000
     50 H18        -0.0649   -2.9134    0.0000 H         1 <0>        0.00000
     51 H19        -0.0649   -2.9134    0.0000 H         1 <0>        0.00000
     52 H20        -1.3524   -2.2934    0.0000 H         1 <0>        0.00000
     53 H21        -1.3524   -2.2934    0.0000 H         1 <0>        0.00000
     54 H22        -0.4229   -3.6567    0.0000 H         1 <0>        0.00000
     55 H23        -0.4229   -3.6567    0.0000 H         1 <0>        0.00000
     56 H24        -1.7103   -3.0367    0.0000 H         1 <0>        0.00000
     57 H25        -1.7103   -3.0367    0.0000 H         1 <0>        0.00000
     58 H26        -1.2456   -3.7184    0.0000 H         1 <0>        0.00000
     59 H27         1.0658    3.6188    0.0000 H         1 <0>        0.00000
     60 H28         1.0658    3.6188    0.0000 H         1 <0>        0.00000
     61 H29         1.0658    3.6188    0.0000 H         1 <0>        0.00000
@<TRIPOS>BOND
     1    1    2 ar
     2    1    6 ar
     3    2    3 ar
     4    3    4 ar
     5    3    7 1
     6    4    5 ar
     7    4   11 1
     8    5    6 ar
     9    7    8 1
    10    7   16 1
    11    7   33 1
    12    8    9 ar
    13    8   12 ar
    14    9   10 1
    15    9   15 ar
    16   10   11 2
    17   10   24 1
    18   12   13 ar
    19   13   14 ar
    20   14   15 ar
    21   14   22 1
    22   16   17 1
    23   16   21 1
    24   17   18 1
    25   18   19 1
    26   19   20 1
    27   19   23 1
    28   20   21 1
    29   23   30 2
    30   23   31 1
    31   23   32 2
    32   24   25 1
    33   24   26 1
    34   25   27 1
    35   26   28 1
    36   27   29 1
    37   28   29 1
    38    1   34 1
    39    5   35 1
    40    6   36 1
    41   11   37 1
    42   12   38 1
    43   13   39 1
    44   15   40 1
    45   16   41 1
    46   17   42 1
    47   17   43 1
    48   18   44 1
    49   18   45 1
    50   20   46 1
    51   20   47 1
    52   21   48 1
    53   21   49 1
    54   25   50 1
    55   25   51 1
    56   26   52 1
    57   26   53 1
    58   27   54 1
    59   27   55 1
    60   28   56 1
    61   28   57 1
    62   29   58 1
    63   31   59 1
    64   31   60 1
    65   31   61 1
@<TRIPOS>SUBSTRUCTURE
     1 <0>         1 GROUP 0 A     ****
@<TRIPOS>MOLECULE
*****
   66    70     1     0     0
SMALL
NO_CHARGES

@<TRIPOS>ATOM
      1 N1         -5.8078   -3.0058    0.0000 N.pl3     1 <0>        0.00000
      2 C1         -5.4722   -3.7595    0.0000 C.ar      1 <0>        0.00000
      3 N2         -4.6518   -3.8457    0.0000 N.ar      1 <0>        0.00000
      4 C2         -4.3162   -4.5994    0.0000 C.ar      1 <0>        0.00000
      5 O1         -3.4957   -4.6856    0.0000 O.2       1 <0>        0.00000
      6 N3         -4.8011   -5.2668    0.0000 N.am      1 <0>        0.00000
      7 C3         -5.6216   -5.1806    0.0000 C.ar      1 <0>        0.00000
      8 C4         -5.9572   -4.4269    0.0000 C.ar      1 <0>        0.00000
      9 C5         -4.4656   -6.0205    0.0000 C.3       1 <0>        0.00000
     10 O2         -3.6586   -6.1920    0.0000 O.3       1 <0>        0.00000
     11 C6         -3.5724   -7.0125    0.0000 C.3       1 <0>        0.00000
     12 C7         -2.8579   -7.4250    0.0000 C.3       1 <0>        0.00000
     13 O3         -2.1434   -7.0125    0.0000 O.3       1 <0>        0.00000
     14 P1         -1.4289   -7.4250    0.0000 P.3       1 <0>        0.00000
     15 O4         -1.8414   -8.1395    0.0000 O.3       1 <0>        0.00000
     16 O5         -1.0164   -6.7105    0.0000 O.2       1 <0>        0.00000
     17 O6         -0.7145   -7.8375    0.0000 O.3       1 <0>        0.00000
     18 P2          0.0000   -7.4250    0.0000 P.3       1 <0>        0.00000
     19 O7          0.4125   -8.1395    0.0000 O.3       1 <0>        0.00000
     20 O8         -0.4125   -6.7105    0.0000 O.2       1 <0>        0.00000
     21 O9          0.7145   -7.0125    0.0000 O.3       1 <0>        0.00000
     22 C8          1.4289   -7.4250    0.0000 C.3       1 <0>        0.00000
     23 C9          2.1434   -7.0125    0.0000 C.3       1 <0>        0.00000
     24 O10         2.8579   -7.4250    0.0000 O.3       1 <0>        0.00000
     25 C10         3.5724   -7.0125    0.0000 C.ar      1 <0>        0.00000
     26 N4          4.2868   -7.4250    0.0000 N.ar      1 <0>        0.00000
     27 C11         5.0013   -7.0125    0.0000 C.ar      1 <0>        0.00000
     28 C12         5.0013   -6.1875    0.0000 C.ar      1 <0>        0.00000
     29 N5          4.2868   -5.7750    0.0000 N.ar      1 <0>        0.00000
     30 C13         3.5724   -6.1875    0.0000 C.ar      1 <0>        0.00000
     31 C14         2.8579   -5.7750    0.0000 C.2       1 <0>        0.00000
     32 S1          2.8579   -4.9500    0.0000 S.3       1 <0>        0.00000
     33 C15         2.1434   -6.1875    0.0000 C.2       1 <0>        0.00000
     34 S2          1.4289   -5.7750    0.0000 S.3       1 <0>        0.00000
     35 C16         5.7158   -5.7750    0.0000 C.ar      1 <0>        0.00000
     36 O11         5.7158   -4.9500    0.0000 O.3       1 <0>        0.00000
     37 N6          6.4302   -6.1875    0.0000 N.ar      1 <0>        0.00000
     38 C17         6.4302   -7.0125    0.0000 C.ar      1 <0>        0.00000
     39 N7          7.1447   -7.4250    0.0000 N.pl3     1 <0>        0.00000
     40 N8          5.7158   -7.4250    0.0000 N.ar      1 <0>        0.00000
     41 C18        -4.3260   -7.3481    0.0000 C.3       1 <0>        0.00000
     42 O12        -4.4976   -8.1550    0.0000 O.3       1 <0>        0.00000
     43 C19        -4.8781   -6.7350    0.0000 C.3       1 <0>        0.00000
     44 O13        -5.6985   -6.8212    0.0000 O.3       1 <0>        0.00000
     45 H1         -5.8078   -3.0058    0.0000 H         1 <0>        0.00000
     46 H2         -5.8078   -3.0058    0.0000 H         1 <0>        0.00000
     47 H3         -5.6216   -5.1806    0.0000 H         1 <0>        0.00000
     48 H4         -5.9572   -4.4269    0.0000 H         1 <0>        0.00000
     49 H5         -4.4656   -6.0205    0.0000 H         1 <0>        0.00000
     50 H6         -3.5724   -7.0125    0.0000 H         1 <0>        0.00000
     51 H7         -2.8579   -7.4250    0.0000 H         1 <0>        0.00000
     52 H8         -2.8579   -7.4250    0.0000 H         1 <0>        0.00000
     53 H9         -1.8414   -8.1395    0.0000 H         1 <0>        0.00000
     54 H10         0.4125   -8.1395    0.0000 H         1 <0>        0.00000
     55 H11         1.4289   -7.4250    0.0000 H         1 <0>        0.00000
     56 H12         1.4289   -7.4250    0.0000 H         1 <0>        0.00000
     57 H13         2.1434   -7.0125    0.0000 H         1 <0>        0.00000
     58 H14         2.8579   -4.9500    0.0000 H         1 <0>        0.00000
     59 H15         1.4289   -5.7750    0.0000 H         1 <0>        0.00000
     60 H16         5.7158   -4.9500    0.0000 H         1 <0>        0.00000
     61 H17         7.1447   -7.4250    0.0000 H         1 <0>        0.00000
     62 H18         7.1447   -7.4250    0.0000 H         1 <0>        0.00000
     63 H19        -4.3260   -7.3481    0.0000 H         1 <0>        0.00000
     64 H20        -4.4976   -8.1550    0.0000 H         1 <0>        0.00000
     65 H21        -4.8781   -6.7350    0.0000 H         1 <0>        0.00000
     66 H22        -5.6985   -6.8212    0.0000 H         1 <0>        0.00000
@<TRIPOS>BOND
     1    1    2 1
     2    2    3 2
     3    3    4 1
     4    4    5 2
     5    4    6 am
     6    6    7 1
     7    7    8 2
     8    2    8 1
     9    6    9 1
    10    9   10 1
    11   10   11 1
    12   11   12 1
    13   12   13 1
    14   13   14 1
    15   14   15 1
    16   14   16 2
    17   14   17 1
    18   17   18 1
    19   18   19 1
    20   18   20 2
    21   18   21 1
    22   21   22 1
    23   22   23 1
    24   23   24 1
    25   24   25 1
    26   25   26 ar
    27   26   27 ar
    28   27   28 ar
    29   28   29 ar
    30   29   30 ar
    31   25   30 ar
    32   30   31 1
    33   31   32 1
    34   31   33 2
    35   23   33 1
    36   33   34 1
    37   28   35 ar
    38   35   36 1
    39   35   37 ar
    40   37   38 ar
    41   38   39 1
    42   38   40 ar
    43   27   40 ar
    44   11   41 1
    45   41   42 1
    46   41   43 1
    47    9   43 1
    48   43   44 1
    49    1   45 1
    50    1   46 1
    51    7   47 1
    52    8   48 1
    53    9   49 1
    54   11   50 1
    55   12   51 1
    56   12   52 1
    57   15   53 1
    58   19   54 1
    59   22   55 1
    60   22   56 1
    61   23   57 1
    62   32   58 1
    63   34   59 1
    64   36   60 1
    65   39   61 1
    66   39   62 1
    67   41   63 1
    68   42   64 1
    69   43   65 1
    70   44   66 1
@<TRIPOS>SUBSTRUCTURE
     1 <0>         1 GROUP 0 A     ****
@<TRIPOS>MOLECULE
*****
   75    75     1     0     0
SMALL
NO_CHARGES

@<TRIPOS>ATOM
      1 C1          0.6774    2.4083    0.0000 C.3       1 <0>        0.00000
      2 C2          0.0941    1.8250    0.0000 C.3       1 <0>        0.00000
      3 O1         -0.7028    2.0385    0.0000 O.3       1 <0>        0.00000
      4 P1         -1.2862    1.4551    0.0000 P.3       1 <0>        0.00000
      5 O2         -1.8696    2.0385    0.0000 O.2       1 <0>        0.00000
      6 O3         -0.7028    0.8718    0.0000 O.3       1 <0>        0.00000
      7 C3          0.0941    1.0853    0.0000 C.3       1 <0>        0.00000
      8 C4          0.6774    0.5019    0.0000 C.3       1 <0>        0.00000
      9 C5         -1.8696    0.8718    0.0000 C.2       1 <0>        0.00000
     10 C6         -2.6664    1.0853    0.0000 C.2       1 <0>        0.00000
     11 C7         -2.8800    1.8822    0.0000 C.ar      1 <0>        0.00000
     12 C8         -3.6769    2.0957    0.0000 C.ar      1 <0>        0.00000
     13 C9         -3.8904    2.8926    0.0000 C.ar      1 <0>        0.00000
     14 C10        -3.3070    3.4760    0.0000 C.ar      1 <0>        0.00000
     15 O4         -3.5205    4.2729    0.0000 O.3       1 <0>        0.00000
     16 C11        -2.5101    3.2624    0.0000 C.ar      1 <0>        0.00000
     17 C12        -2.2966    2.4656    0.0000 C.ar      1 <0>        0.00000
     18 C13        -1.9268    3.8458    0.0000 C.3       1 <0>        0.00000
     19 C14        -1.3434    4.4292    0.0000 C.3       1 <0>        0.00000
     20 C15        -1.3434    3.2624    0.0000 C.3       1 <0>        0.00000
     21 C16        -2.5101    4.4292    0.0000 C.3       1 <0>        0.00000
     22 C17        -4.6873    3.1061    0.0000 C.3       1 <0>        0.00000
     23 C18        -5.4842    3.3197    0.0000 C.3       1 <0>        0.00000
     24 C19        -4.4737    3.9030    0.0000 C.3       1 <0>        0.00000
     25 C20        -4.9008    2.3092    0.0000 C.3       1 <0>        0.00000
     26 P2         -1.6560    0.0749    0.0000 P.3       1 <0>        0.00000
     27 O5         -0.8591    0.2884    0.0000 O.2       1 <0>        0.00000
     28 O6         -2.4529   -0.1386    0.0000 O.3       1 <0>        0.00000
     29 C21        -2.6664   -0.9355    0.0000 C.3       1 <0>        0.00000
     30 C22        -3.4633   -1.1491    0.0000 C.3       1 <0>        0.00000
     31 O7         -1.4425   -0.7220    0.0000 O.3       1 <0>        0.00000
     32 C23        -0.6456   -0.9355    0.0000 C.3       1 <0>        0.00000
     33 C24        -0.0622   -0.3522    0.0000 C.3       1 <0>        0.00000
     34 H1          0.6774    2.4083    0.0000 H         1 <0>        0.00000
     35 H2          0.6774    2.4083    0.0000 H         1 <0>        0.00000
     36 H3          0.6774    2.4083    0.0000 H         1 <0>        0.00000
     37 H4          0.0941    1.8250    0.0000 H         1 <0>        0.00000
     38 H5          0.0941    1.8250    0.0000 H         1 <0>        0.00000
     39 H6          0.0941    1.0853    0.0000 H         1 <0>        0.00000
     40 H7          0.0941    1.0853    0.0000 H         1 <0>        0.00000
     41 H8          0.6774    0.5019    0.0000 H         1 <0>        0.00000
     42 H9          0.6774    0.5019    0.0000 H         1 <0>        0.00000
     43 H10         0.6774    0.5019    0.0000 H         1 <0>        0.00000
     44 H11        -2.6664    1.0853    0.0000 H         1 <0>        0.00000
     45 H12        -3.6769    2.0957    0.0000 H         1 <0>        0.00000
     46 H13        -3.5205    4.2729    0.0000 H         1 <0>        0.00000
     47 H14        -2.2966    2.4656    0.0000 H         1 <0>        0.00000
     48 H15        -1.3434    4.4292    0.0000 H         1 <0>        0.00000
     49 H16        -1.3434    4.4292    0.0000 H         1 <0>        0.00000
     50 H17        -1.3434    4.4292    0.0000 H         1 <0>        0.00000
     51 H18        -1.3434    3.2624    0.0000 H         1 <0>        0.00000
     52 H19        -1.3434    3.2624    0.0000 H         1 <0>        0.00000
     53 H20        -1.3434    3.2624    0.0000 H         1 <0>        0.00000
     54 H21        -2.5101    4.4292    0.0000 H         1 <0>        0.00000
     55 H22        -2.5101    4.4292    0.0000 H         1 <0>        0.00000
     56 H23        -2.5101    4.4292    0.0000 H         1 <0>        0.00000
     57 H24        -5.4842    3.3197    0.0000 H         1 <0>        0.00000
     58 H25        -5.4842    3.3197    0.0000 H         1 <0>        0.00000
     59 H26        -5.4842    3.3197    0.0000 H         1 <0>        0.00000
     60 H27        -4.4737    3.9030    0.0000 H         1 <0>        0.00000
     61 H28        -4.4737    3.9030    0.0000 H         1 <0>        0.00000
     62 H29        -4.4737    3.9030    0.0000 H         1 <0>        0.00000
     63 H30        -4.9008    2.3092    0.0000 H         1 <0>        0.00000
     64 H31        -4.9008    2.3092    0.0000 H         1 <0>        0.00000
     65 H32        -4.9008    2.3092    0.0000 H         1 <0>        0.00000
     66 H33        -2.6664   -0.9355    0.0000 H         1 <0>        0.00000
     67 H34        -2.6664   -0.9355    0.0000 H         1 <0>        0.00000
     68 H35        -3.4633   -1.1491    0.0000 H         1 <0>        0.00000
     69 H36        -3.4633   -1.1491    0.0000 H         1 <0>        0.00000
     70 H37        -3.4633   -1.1491    0.0000 H         1 <0>        0.00000
     71 H38        -0.6456   -0.9355    0.0000 H         1 <0>        0.00000
     72 H39        -0.6456   -0.9355    0.0000 H         1 <0>        0.00000
     73 H40        -0.0622   -0.3522    0.0000 H         1 <0>        0.00000
     74 H41        -0.0622   -0.3522    0.0000 H         1 <0>        0.00000
     75 H42        -0.0622   -0.3522    0.0000 H         1 <0>        0.00000
@<TRIPOS>BOND
     1    1    2 1
     2    2    3 1
     3    3    4 1
     4    4    5 2
     5    4    6 1
     6    6    7 1
     7    7    8 1
     8    4    9 1
     9    9   10 2
    10   10   11 1
    11   11   12 ar
    12   12   13 ar
    13   13   14 ar
    14   14   15 1
    15   14   16 ar
    16   16   17 ar
    17   11   17 ar
    18   16   18 1
    19   18   19 1
    20   18   20 1
    21   18   21 1
    22   13   22 1
    23   22   23 1
    24   22   24 1
    25   22   25 1
    26    9   26 1
    27   26   27 2
    28   26   28 1
    29   28   29 1
    30   29   30 1
    31   26   31 1
    32   31   32 1
    33   32   33 1
    34    1   34 1
    35    1   35 1
    36    1   36 1
    37    2   37 1
    38    2   38 1
    39    7   39 1
    40    7   40 1
    41    8   41 1
    42    8   42 1
    43    8   43 1
    44   10   44 1
    45   12   45 1
    46   15   46 1
    47   17   47 1
    48   19   48 1
    49   19   49 1
    50   19   50 1
    51   20   51 1
    52   20   52 1
    53   20   53 1
    54   21   54 1
    55   21   55 1
    56   21   56 1
    57   23   57 1
    58   23   58 1
    59   23   59 1
    60   24   60 1
    61   24   61 1
    62   24   62 1
    63   25   63 1
    64   25   64 1
    65   25   65 1
    66   29   66 1
    67   29   67 1
    68   30   68 1
    69   30   69 1
    70   30   70 1
    71   32   71 1
    72   32   72 1
    73   33   73 1
    74   33   74 1
    75   33   75 1
@<TRIPOS>SUBSTRUCTURE
     1 <0>         1 GROUP 0 A     ****
@<TRIPOS>MOLECULE
MLG
   32    32     1     0     0
SMALL
NO_CHARGES

@<TRIPOS>ATOM
      1 C1         -1.9619   -0.9598    0.0000 C.ar      1 <0>        0.00000
      2 C2         -2.6763   -1.3723    0.0000 C.ar      1 <0>        0.00000
      3 C3         -3.3908   -0.9598    0.0000 C.ar      1 <0>        0.00000
      4 Cl1        -4.1053   -1.3723    0.0000 Cl        1 <0>        0.00000
      5 C4         -3.3908   -0.1348    0.0000 C.ar      1 <0>        0.00000
      6 C5         -2.6763    0.2777    0.0000 C.ar      1 <0>        0.00000
      7 Cl2        -2.6763    1.1027    0.0000 Cl        1 <0>        0.00000
      8 C6         -1.9619   -0.1348    0.0000 C.ar      1 <0>        0.00000
      9 O1         -1.2474    0.2777    0.0000 O.3       1 <0>        0.00000
     10 C7          0.1816    0.2777    0.0000 C.3       1 <0>        0.00000
     11 C8         -0.5329   -0.1348    0.0000 C.3       1 <0>        0.00000
     12 C9          0.8960   -0.1348    0.0000 C.3       1 <0>        0.00000
     13 N1          1.6105    0.2777    0.0000 N.3       1 <0>        0.00000
     14 C10         1.6105    1.1027    0.0000 C.3       1 <0>        0.00000
     15 C11         2.3250   -0.1348    0.0000 C.3       1 <0>        0.00000
     16 C12         3.0394    0.2777    0.0000 C.1       1 <0>        0.00000
     17 C13         3.7539    0.6902    0.0000 C.1       1 <0>        0.00000
     18 H1         -1.9619   -0.9598    0.0000 H         1 <0>        0.00000
     19 H2         -2.6763   -1.3723    0.0000 H         1 <0>        0.00000
     20 H3         -3.3908   -0.1348    0.0000 H         1 <0>        0.00000
     21 H4          0.1816    0.2777    0.0000 H         1 <0>        0.00000
     22 H5          0.1816    0.2777    0.0000 H         1 <0>        0.00000
     23 H6         -0.5329   -0.1348    0.0000 H         1 <0>        0.00000
     24 H7         -0.5329   -0.1348    0.0000 H         1 <0>        0.00000
     25 H8          0.8960   -0.1348    0.0000 H         1 <0>        0.00000
     26 H9          0.8960   -0.1348    0.0000 H         1 <0>        0.00000
     27 H10         1.6105    1.1027    0.0000 H         1 <0>        0.00000
     28 H11         1.6105    1.1027    0.0000 H         1 <0>        0.00000
     29 H12         1.6105    1.1027    0.0000 H         1 <0>        0.00000
     30 H13         2.3250   -0.1348    0.0000 H         1 <0>        0.00000
     31 H14         2.3250   -0.1348    0.0000 H         1 <0>        0.00000
     32 H15         3.7539    0.6902    0.0000 H         1 <0>        0.00000
@<TRIPOS>BOND
     1    1    2 ar
     2    1    8 ar
     3    2    3 ar
     4    3    4 1
     5    3    5 ar
     6    5    6 ar
     7    6    7 1
     8    6    8 ar
     9    8    9 1
    10    9   11 1
    11   10   11 1
    12   10   12 1
    13   12   13 1
    14   13   14 1
    15   13   15 1
    16   15   16 1
    17   16   17 3
    18    1   18 1
    19    2   19 1
    20    5   20 1
    21   10   21 1
    22   10   22 1
    23   11   23 1
    24   11   24 1
    25   12   25 1
    26   12   26 1
    27   14   27 1
    28   14   28 1
    29   14   29 1
    30   15   30 1
    31   15   31 1
    32   17   32 1
@<TRIPOS>SUBSTRUCTURE
     1 <0>         1 GROUP 0 A     ****
@<TRIPOS>MOLECULE
*****
   36    38     1     0     0
SMALL
NO_CHARGES

@<TRIPOS>ATOM
      1 O1          6.3709   -0.8559    0.0000 O.3       1 <0>        0.00000
      2 O2          6.2603    0.3817    0.0000 O.2       1 <0>        0.00000
      3 O3          2.1506    0.9634    0.0000 O.3       1 <0>        0.00000
      4 C1          4.8314   -1.2684    0.0000 C.3       1 <0>        0.00000
      5 C2          5.2439   -1.9829    0.0000 C.3       1 <0>        0.00000
      6 C3          4.4189   -1.9829    0.0000 C.3       1 <0>        0.00000
      7 C4          5.5459   -0.8559    0.0000 C.3       1 <0>        0.00000
      8 C5          4.1168   -0.8559    0.0000 C.2       1 <0>        0.00000
      9 C6          4.1168   -0.0309    0.0000 C.ar      1 <0>        0.00000
     10 C7          5.5459   -0.0309    0.0000 C.2       1 <0>        0.00000
     11 C8          5.9584   -1.5704    0.0000 C.3       1 <0>        0.00000
     12 C9          4.8314    0.3817    0.0000 C.ar      1 <0>        0.00000
     13 C10         3.4024   -1.2684    0.0000 C.3       1 <0>        0.00000
     14 C11         3.5088    0.5194    0.0000 C.ar      1 <0>        0.00000
     15 C12         4.6588    1.1834    0.0000 C.ar      1 <0>        0.00000
     16 C13         3.8430    1.2684    0.0000 C.ar      1 <0>        0.00000
     17 C14         2.7015    0.3493    0.0000 C.3       1 <0>        0.00000
     18 C15         3.4305    1.9829    0.0000 C.3       1 <0>        0.00000
     19 H1          6.3709   -0.8559    0.0000 H         1 <0>        0.00000
     20 H2          2.1506    0.9634    0.0000 H         1 <0>        0.00000
     21 H3          5.2439   -1.9829    0.0000 H         1 <0>        0.00000
     22 H4          5.2439   -1.9829    0.0000 H         1 <0>        0.00000
     23 H5          4.4189   -1.9829    0.0000 H         1 <0>        0.00000
     24 H6          4.4189   -1.9829    0.0000 H         1 <0>        0.00000
     25 H7          5.9584   -1.5704    0.0000 H         1 <0>        0.00000
     26 H8          5.9584   -1.5704    0.0000 H         1 <0>        0.00000
     27 H9          5.9584   -1.5704    0.0000 H         1 <0>        0.00000
     28 H10         3.4024   -1.2684    0.0000 H         1 <0>        0.00000
     29 H11         3.4024   -1.2684    0.0000 H         1 <0>        0.00000
     30 H12         3.4024   -1.2684    0.0000 H         1 <0>        0.00000
     31 H13         4.6588    1.1834    0.0000 H         1 <0>        0.00000
     32 H14         2.7015    0.3493    0.0000 H         1 <0>        0.00000
     33 H15         2.7015    0.3493    0.0000 H         1 <0>        0.00000
     34 H16         3.4305    1.9829    0.0000 H         1 <0>        0.00000
     35 H17         3.4305    1.9829    0.0000 H         1 <0>        0.00000
     36 H18         3.4305    1.9829    0.0000 H         1 <0>        0.00000
@<TRIPOS>BOND
     1    1    7 1
     2    2   10 2
     3    3   17 1
     4    4    5 1
     5    4    6 1
     6    4    7 1
     7    4    8 1
     8    5    6 1
     9    7   10 1
    10    7   11 1
    11    8    9 2
    12    8   13 1
    13    9   12 1
    14    9   14 1
    15   10   12 1
    16   12   15 2
    17   14   16 2
    18   14   17 1
    19   15   16 1
    20   16   18 1
    21    1   19 1
    22    3   20 1
    23    5   21 1
    24    5   22 1
    25    6   23 1
    26    6   24 1
    27   11   25 1
    28   11   26 1
    29   11   27 1
    30   13   28 1
    31   13   29 1
    32   13   30 1
    33   15   31 1
    34   17   32 1
    35   17   33 1
    36   18   34 1
    37   18   35 1
    38   18   36 1
@<TRIPOS>SUBSTRUCTURE
     1 <0>         1 GROUP 0 A     ****
@<TRIPOS>MOLECULE
*****
   26    25     1     0     0
SMALL
NO_CHARGES

@<TRIPOS>ATOM
      1 Br1         6.9534    2.1582    0.0000 Br        1 <0>        0.00000
      2 F1          4.8099    0.9207    0.0000 F         1 <0>        0.00000
      3 F2          5.6350   -0.5082    0.0000 F         1 <0>        0.00000
      4 F3          4.0955    0.5082    0.0000 F         1 <0>        0.00000
      5 F4          4.9205   -0.9207    0.0000 F         1 <0>        0.00000
      6 F5          6.3495   -0.0957    0.0000 F         1 <0>        0.00000
      7 F6          5.5245    1.3332    0.0000 F         1 <0>        0.00000
      8 F7          3.3810    0.0957    0.0000 F         1 <0>        0.00000
      9 F8          4.2060   -1.3332    0.0000 F         1 <0>        0.00000
     10 F9          6.2390    1.7457    0.0000 F         1 <0>        0.00000
     11 F10         7.0640    0.3168    0.0000 F         1 <0>        0.00000
     12 F11         3.4916   -1.7457    0.0000 F         1 <0>        0.00000
     13 F12         2.6665   -0.3168    0.0000 F         1 <0>        0.00000
     14 F13         8.0804    1.8563    0.0000 F         1 <0>        0.00000
     15 F14         7.7784    0.7293    0.0000 F         1 <0>        0.00000
     16 F15         1.6500   -1.8563    0.0000 F         1 <0>        0.00000
     17 F16         1.9520   -0.7293    0.0000 F         1 <0>        0.00000
     18 F17         2.7770   -2.1582    0.0000 F         1 <0>        0.00000
     19 C1          5.2224    0.2063    0.0000 C.3       1 <0>        0.00000
     20 C2          4.5080   -0.2063    0.0000 C.3       1 <0>        0.00000
     21 C3          5.9370    0.6188    0.0000 C.3       1 <0>        0.00000
     22 C4          3.7935   -0.6188    0.0000 C.3       1 <0>        0.00000
     23 C5          6.6515    1.0313    0.0000 C.3       1 <0>        0.00000
     24 C6          3.0791   -1.0313    0.0000 C.3       1 <0>        0.00000
     25 C7          7.3659    1.4438    0.0000 C.3       1 <0>        0.00000
     26 C8          2.3645   -1.4438    0.0000 C.3       1 <0>        0.00000
@<TRIPOS>BOND
     1    1   25 1
     2    2   19 1
     3    3   19 1
     4    4   20 1
     5    5   20 1
     6    6   21 1
     7    7   21 1
     8    8   22 1
     9    9   22 1
    10   10   23 1
    11   11   23 1
    12   12   24 1
    13   13   24 1
    14   14   25 1
    15   15   25 1
    16   16   26 1
    17   17   26 1
    18   18   26 1
    19   19   20 1
    20   19   21 1
    21   20   22 1
    22   21   23 1
    23   22   24 1
    24   23   25 1
    25   24   26 1
@<TRIPOS>SUBSTRUCTURE
     1 <0>         1 GROUP 0 A     ****
@<TRIPOS>MOLECULE
927
   35    35     1     0     0
SMALL
NO_CHARGES

@<TRIPOS>ATOM
      1 S1          6.3947   -0.0210    0.0000 S.3       1 <0>        0.00000
      2 S2          2.8147    0.3182    0.0000 S.o2      1 <0>        0.00000
      3 S3          8.8723    0.4664    0.0000 S.3       1 <0>        0.00000
      4 O1          3.0696   -0.4664    0.0000 O.2       1 <0>        0.00000
      5 O2          2.5598    1.1028    0.0000 O.2       1 <0>        0.00000
      6 N1          3.5993    0.5731    0.0000 N.2       1 <0>        0.00000
      7 N2          8.4599   -0.8030    0.0000 N.ar      1 <0>        0.00000
      8 N3          4.0409   -0.7859    0.0000 N.pl3     1 <0>        0.00000
      9 N4          9.9119   -0.5731    0.0000 N.2       1 <0>        0.00000
     10 N5          2.0301    0.0632    0.0000 N.pl3     1 <0>        0.00000
     11 N6         11.3096   -0.2760    0.0000 N.pl3     1 <0>        0.00000
     12 N7         10.3534    0.7859    0.0000 N.pl3     1 <0>        0.00000
     13 C1          4.9970    0.2760    0.0000 C.3       1 <0>        0.00000
     14 C2          5.6101   -0.2760    0.0000 C.3       1 <0>        0.00000
     15 C3          7.0078   -0.5731    0.0000 C.3       1 <0>        0.00000
     16 C4          4.2124    0.0210    0.0000 C.2       1 <0>        0.00000
     17 C5          7.7924   -0.3182    0.0000 C.ar      1 <0>        0.00000
     18 C6          8.0474    0.4664    0.0000 C.ar      1 <0>        0.00000
     19 C7          9.1273   -0.3182    0.0000 C.ar      1 <0>        0.00000
     20 C8         10.5250   -0.0210    0.0000 C.2       1 <0>        0.00000
     21 H1          4.0409   -0.7859    0.0000 H         1 <0>        0.00000
     22 H2          4.0409   -0.7859    0.0000 H         1 <0>        0.00000
     23 H3          2.0301    0.0632    0.0000 H         1 <0>        0.00000
     24 H4          2.0301    0.0632    0.0000 H         1 <0>        0.00000
     25 H5         11.3096   -0.2760    0.0000 H         1 <0>        0.00000
     26 H6         11.3096   -0.2760    0.0000 H         1 <0>        0.00000
     27 H7         10.3534    0.7859    0.0000 H         1 <0>        0.00000
     28 H8         10.3534    0.7859    0.0000 H         1 <0>        0.00000
     29 H9          4.9970    0.2760    0.0000 H         1 <0>        0.00000
     30 H10         4.9970    0.2760    0.0000 H         1 <0>        0.00000
     31 H11         5.6101   -0.2760    0.0000 H         1 <0>        0.00000
     32 H12         5.6101   -0.2760    0.0000 H         1 <0>        0.00000
     33 H13         7.0078   -0.5731    0.0000 H         1 <0>        0.00000
     34 H14         7.0078   -0.5731    0.0000 H         1 <0>        0.00000
     35 H15         8.0474    0.4664    0.0000 H         1 <0>        0.00000
@<TRIPOS>BOND
     1    1   14 1
     2    1   15 1
     3    2    4 2
     4    2    5 2
     5    2    6 1
     6    2   10 1
     7    3   18 1
     8    3   19 1
     9    6   16 2
    10    7   17 1
    11    7   19 2
    12    8   16 1
    13    9   19 1
    14    9   20 2
    15   11   20 1
    16   12   20 1
    17   13   14 1
    18   13   16 1
    19   15   17 1
    20   17   18 2
    21    8   21 1
    22    8   22 1
    23   10   23 1
    24   10   24 1
    25   11   25 1
    26   11   26 1
    27   12   27 1
    28   12   28 1
    29   13   29 1
    30   13   30 1
    31   14   31 1
    32   14   32 1
    33   15   33 1
    34   15   34 1
    35   18   35 1
@<TRIPOS>SUBSTRUCTURE
     1 <0>         1 GROUP 0 A     ****
@<TRIPOS>MOLECULE
ATT
   37    38     1     0     0
SMALL
NO_CHARGES

@<TRIPOS>ATOM
      1 C1          0.1148   -0.5029    0.0000 C.3       1 <0>        0.00000
      2 C2         -0.2977    0.2116    0.0000 C.2       1 <0>        0.00000
      3 C3         -1.5352    0.9261    0.0000 C.3       1 <0>        0.00000
      4 C4         -2.3602   -1.9318    0.0000 C.ar      1 <0>        0.00000
      5 C5         -2.7727   -1.2173    0.0000 C.ar      1 <0>        0.00000
      6 C6         -2.3602   -0.5029    0.0000 C.ar      1 <0>        0.00000
      7 C7         -1.5352   -0.5029    0.0000 C.ar      1 <0>        0.00000
      8 C8          2.5898    0.9261    0.0000 C.ar      1 <0>        0.00000
      9 C9          3.5818    1.8193    0.0000 C.ar      1 <0>        0.00000
     10 N1          2.8674    2.2318    0.0000 N.ar      1 <0>        0.00000
     11 N2          2.2543    1.6797    0.0000 N.ar      1 <0>        0.00000
     12 S1          3.4103    1.0123    0.0000 S.3       1 <0>        0.00000
     13 S2          4.3355    2.1548    0.0000 S.3       1 <0>        0.00000
     14 N3          2.1773    0.2116    0.0000 N.am      1 <0>        0.00000
     15 C10         1.3523    0.2116    0.0000 C.2       1 <0>        0.00000
     16 O1          0.9398    0.9261    0.0000 O.2       1 <0>        0.00000
     17 N4          0.9398   -0.5029    0.0000 N.am      1 <0>        0.00000
     18 O2          0.1148    0.9261    0.0000 O.2       1 <0>        0.00000
     19 N5         -1.1227    0.2116    0.0000 N.am      1 <0>        0.00000
     20 C11        -0.2977   -1.2173    0.0000 C.3       1 <0>        0.00000
     21 C12        -1.1227   -1.2173    0.0000 C.ar      1 <0>        0.00000
     22 C13        -1.5352   -1.9318    0.0000 C.ar      1 <0>        0.00000
     23 H1          0.4068    0.0028    0.0000 H         1 <0>        0.00000
     24 H2         -1.5352    0.9261    0.0000 H         1 <0>        0.00000
     25 H3         -1.5352    0.9261    0.0000 H         1 <0>        0.00000
     26 H4         -1.5352    0.9261    0.0000 H         1 <0>        0.00000
     27 H5         -2.3602   -1.9318    0.0000 H         1 <0>        0.00000
     28 H6         -2.7727   -1.2173    0.0000 H         1 <0>        0.00000
     29 H7         -2.3602   -0.5029    0.0000 H         1 <0>        0.00000
     30 H8         -1.5352   -0.5029    0.0000 H         1 <0>        0.00000
     31 H9          4.3355    2.1548    0.0000 H         1 <0>        0.00000
     32 H10         2.1773    0.2116    0.0000 H         1 <0>        0.00000
     33 H11         0.9398   -0.5029    0.0000 H         1 <0>        0.00000
     34 H12        -1.1227    0.2116    0.0000 H         1 <0>        0.00000
     35 H13        -0.2977   -1.2173    0.0000 H         1 <0>        0.00000
     36 H14        -0.2977   -1.2173    0.0000 H         1 <0>        0.00000
     37 H15        -1.5352   -1.9318    0.0000 H         1 <0>        0.00000
@<TRIPOS>BOND
     1    1    2 1
     2    1   17 1
     3    1   20 1
     4    1   23 1
     5    2   18 2
     6    2   19 am
     7    3   19 1
     8    4    5 ar
     9    4   22 ar
    10    5    6 ar
    11    6    7 ar
    12    7   21 ar
    13    8   11 2
    14    8   12 1
    15    8   14 1
    16    9   10 2
    17    9   12 1
    18    9   13 1
    19   10   11 1
    20   14   15 am
    21   15   16 2
    22   15   17 am
    23   20   21 1
    24   21   22 ar
    25    3   24 1
    26    3   25 1
    27    3   26 1
    28    4   27 1
    29    5   28 1
    30    6   29 1
    31    7   30 1
    32   13   31 1
    33   14   32 1
    34   17   33 1
    35   19   34 1
    36   20   35 1
    37   20   36 1
    38   22   37 1
@<TRIPOS>SUBSTRUCTURE
     1 <0>         1 GROUP 0 A     ****
@<TRIPOS>MOLECULE
*****
   82    84     1     0     0
SMALL
NO_CHARGES

@<TRIPOS>ATOM
      1 N1         -8.9114   -3.6851    0.0000 N.2       1 <0>        0.00000
      2 C1         -8.5969   -2.9224    0.0000 C.2       1 <0>        0.00000
      3 N2         -9.1001   -2.2687    0.0000 N.pl3     1 <0>        0.00000
      4 C2         -7.7791   -2.8135    0.0000 C.ar      1 <0>        0.00000
      5 C3         -7.4646   -2.0508    0.0000 C.ar      1 <0>        0.00000
      6 C4         -6.6468   -1.9418    0.0000 C.ar      1 <0>        0.00000
      7 C5         -6.1436   -2.5956    0.0000 C.ar      1 <0>        0.00000
      8 C6         -5.3258   -2.4866    0.0000 C.3       1 <0>        0.00000
      9 N3         -5.0113   -1.7239    0.0000 N.am      1 <0>        0.00000
     10 C7         -4.1935   -1.6150    0.0000 C.2       1 <0>        0.00000
     11 O1         -3.6903   -2.2687    0.0000 O.2       1 <0>        0.00000
     12 C8         -3.8790   -0.8523    0.0000 C.3       1 <0>        0.00000
     13 C9         -4.3822   -0.1985    0.0000 C.3       1 <0>        0.00000
     14 C10        -5.2000   -0.3075    0.0000 C.3       1 <0>        0.00000
     15 C11        -5.7032    0.3462    0.0000 C.2       1 <0>        0.00000
     16 N4         -6.5210    0.2373    0.0000 N.am      1 <0>        0.00000
     17 O2         -5.3887    1.1089    0.0000 O.2       1 <0>        0.00000
     18 N5         -3.0612   -0.7433    0.0000 N.am      1 <0>        0.00000
     19 C12        -2.7467    0.0194    0.0000 C.2       1 <0>        0.00000
     20 O3         -3.2499    0.6731    0.0000 O.2       1 <0>        0.00000
     21 C13        -1.9289    0.1283    0.0000 C.3       1 <0>        0.00000
     22 C14        -1.6144    0.8910    0.0000 C.3       1 <0>        0.00000
     23 C15        -0.7966    1.0000    0.0000 C.ar      1 <0>        0.00000
     24 C16        -0.2278    0.4024    0.0000 C.ar      1 <0>        0.00000
     25 N6          0.5163    0.7588    0.0000 N.pl3     1 <0>        0.00000
     26 C17         0.4074    1.5765    0.0000 C.ar      1 <0>        0.00000
     27 C18        -0.4041    1.7256    0.0000 C.ar      1 <0>        0.00000
     28 C19        -0.6807    2.5029    0.0000 C.ar      1 <0>        0.00000
     29 C20        -0.1458    3.1310    0.0000 C.ar      1 <0>        0.00000
     30 O4         -0.4224    3.9083    0.0000 O.3       1 <0>        0.00000
     31 C21        -1.2339    4.0574    0.0000 C.3       1 <0>        0.00000
     32 C22        -1.5105    4.8346    0.0000 C.3       1 <0>        0.00000
     33 C23        -0.9756    5.4628    0.0000 C.3       1 <0>        0.00000
     34 C24         0.6656    2.9819    0.0000 C.ar      1 <0>        0.00000
     35 C25         0.9422    2.2047    0.0000 C.ar      1 <0>        0.00000
     36 N7         -1.4256   -0.5254    0.0000 N.pl3     1 <0>        0.00000
     37 S1         -0.6079   -0.4164    0.0000 S.o2      1 <0>        0.00000
     38 O5         -0.7168    0.4013    0.0000 O.2       1 <0>        0.00000
     39 O6         -0.4989   -1.2342    0.0000 O.2       1 <0>        0.00000
     40 C26         0.2099   -0.3075    0.0000 C.3       1 <0>        0.00000
     41 C27         0.7131   -0.9612    0.0000 C.3       1 <0>        0.00000
     42 C28        -6.4581   -3.3583    0.0000 C.ar      1 <0>        0.00000
     43 C29        -7.2759   -3.4672    0.0000 C.ar      1 <0>        0.00000
     44 H1         -8.9114   -3.6851    0.0000 H         1 <0>        0.00000
     45 H2         -9.1001   -2.2687    0.0000 H         1 <0>        0.00000
     46 H3         -9.1001   -2.2687    0.0000 H         1 <0>        0.00000
     47 H4         -7.4646   -2.0508    0.0000 H         1 <0>        0.00000
     48 H5         -6.6468   -1.9418    0.0000 H         1 <0>        0.00000
     49 H6         -5.3258   -2.4866    0.0000 H         1 <0>        0.00000
     50 H7         -5.3258   -2.4866    0.0000 H         1 <0>        0.00000
     51 H8         -5.0113   -1.7239    0.0000 H         1 <0>        0.00000
     52 H9         -3.8790   -0.8523    0.0000 H         1 <0>        0.00000
     53 H10        -4.3822   -0.1985    0.0000 H         1 <0>        0.00000
     54 H11        -4.3822   -0.1985    0.0000 H         1 <0>        0.00000
     55 H12        -5.2000   -0.3075    0.0000 H         1 <0>        0.00000
     56 H13        -5.2000   -0.3075    0.0000 H         1 <0>        0.00000
     57 H14        -6.5210    0.2373    0.0000 H         1 <0>        0.00000
     58 H15        -6.5210    0.2373    0.0000 H         1 <0>        0.00000
     59 H16        -3.0612   -0.7433    0.0000 H         1 <0>        0.00000
     60 H17        -1.9289    0.1283    0.0000 H         1 <0>        0.00000
     61 H18        -1.6144    0.8910    0.0000 H         1 <0>        0.00000
     62 H19        -1.6144    0.8910    0.0000 H         1 <0>        0.00000
     63 H20        -0.2278    0.4024    0.0000 H         1 <0>        0.00000
     64 H21         0.5163    0.7588    0.0000 H         1 <0>        0.00000
     65 H22        -0.6807    2.5029    0.0000 H         1 <0>        0.00000
     66 H23        -1.2339    4.0574    0.0000 H         1 <0>        0.00000
     67 H24        -1.2339    4.0574    0.0000 H         1 <0>        0.00000
     68 H25        -1.5105    4.8346    0.0000 H         1 <0>        0.00000
     69 H26        -1.5105    4.8346    0.0000 H         1 <0>        0.00000
     70 H27        -0.9756    5.4628    0.0000 H         1 <0>        0.00000
     71 H28        -0.9756    5.4628    0.0000 H         1 <0>        0.00000
     72 H29        -0.9756    5.4628    0.0000 H         1 <0>        0.00000
     73 H30         0.6656    2.9819    0.0000 H         1 <0>        0.00000
     74 H31         0.9422    2.2047    0.0000 H         1 <0>        0.00000
     75 H32        -1.4256   -0.5254    0.0000 H         1 <0>        0.00000
     76 H33         0.2099   -0.3075    0.0000 H         1 <0>        0.00000
     77 H34         0.2099   -0.3075    0.0000 H         1 <0>        0.00000
     78 H35         0.7131   -0.9612    0.0000 H         1 <0>        0.00000
     79 H36         0.7131   -0.9612    0.0000 H         1 <0>        0.00000
     80 H37         0.7131   -0.9612    0.0000 H         1 <0>        0.00000
     81 H38        -6.4581   -3.3583    0.0000 H         1 <0>        0.00000
     82 H39        -7.2759   -3.4672    0.0000 H         1 <0>        0.00000
@<TRIPOS>BOND
     1    1    2 2
     2    2    3 1
     3    2    4 1
     4    4    5 ar
     5    5    6 ar
     6    6    7 ar
     7    7    8 1
     8    8    9 1
     9    9   10 am
    10   10   11 2
    11   10   12 1
    12   12   13 1
    13   13   14 1
    14   14   15 1
    15   15   16 am
    16   15   17 2
    17   12   18 1
    18   18   19 am
    19   19   20 2
    20   19   21 1
    21   21   22 1
    22   22   23 1
    23   23   24 2
    24   24   25 1
    25   25   26 1
    26   26   27 ar
    27   23   27 1
    28   27   28 ar
    29   28   29 ar
    30   29   30 1
    31   30   31 1
    32   31   32 1
    33   32   33 1
    34   29   34 ar
    35   34   35 ar
    36   26   35 ar
    37   21   36 1
    38   36   37 1
    39   37   38 2
    40   37   39 2
    41   37   40 1
    42   40   41 1
    43    7   42 ar
    44   42   43 ar
    45    4   43 ar
    46    1   44 1
    47    3   45 1
    48    3   46 1
    49    5   47 1
    50    6   48 1
    51    8   49 1
    52    8   50 1
    53    9   51 1
    54   12   52 1
    55   13   53 1
    56   13   54 1
    57   14   55 1
    58   14   56 1
    59   16   57 1
    60   16   58 1
    61   18   59 1
    62   21   60 1
    63   22   61 1
    64   22   62 1
    65   24   63 1
    66   25   64 1
    67   28   65 1
    68   31   66 1
    69   31   67 1
    70   32   68 1
    71   32   69 1
    72   33   70 1
    73   33   71 1
    74   33   72 1
    75   34   73 1
    76   35   74 1
    77   36   75 1
    78   40   76 1
    79   40   77 1
    80   41   78 1
    81   41   79 1
    82   41   80 1
    83   42   81 1
    84   43   82 1
@<TRIPOS>SUBSTRUCTURE
     1 <0>         1 GROUP 0 A     ****
@<TRIPOS>MOLECULE
*****
   66    69     1     0     0
SMALL
NO_CHARGES

@<TRIPOS>ATOM
      1 N1          4.1960   -5.8286    0.0000 N.pl3     1 <0>        0.00000
      2 C1          3.3890   -6.0001    0.0000 C.2       1 <0>        0.00000
      3 N2          2.8370   -5.3870    0.0000 N.pl3     1 <0>        0.00000
      4 C2          2.0300   -5.5585    0.0000 C.3       1 <0>        0.00000
      5 C3          1.4780   -4.9454    0.0000 C.3       1 <0>        0.00000
      6 C4          1.7329   -4.1608    0.0000 C.3       1 <0>        0.00000
      7 C5          2.5399   -3.9893    0.0000 C.3       1 <0>        0.00000
      8 C6          3.0919   -4.6024    0.0000 C.3       1 <0>        0.00000
      9 C7          1.1809   -3.5477    0.0000 C.3       1 <0>        0.00000
     10 N3          1.4358   -2.7631    0.0000 N.am      1 <0>        0.00000
     11 C8          0.8838   -2.1500    0.0000 C.2       1 <0>        0.00000
     12 O1          0.0768   -2.3215    0.0000 O.2       1 <0>        0.00000
     13 C9          1.1387   -1.3654    0.0000 C.3       1 <0>        0.00000
     14 C10         0.6538   -0.6979    0.0000 C.3       1 <0>        0.00000
     15 C11         1.1387   -0.0305    0.0000 C.3       1 <0>        0.00000
     16 C12         1.9233   -0.2854    0.0000 C.3       1 <0>        0.00000
     17 C13         2.6378    0.1271    0.0000 C.3       1 <0>        0.00000
     18 N4          3.3523   -0.2854    0.0000 N.pl3     1 <0>        0.00000
     19 C14         3.3523   -1.1104    0.0000 C.3       1 <0>        0.00000
     20 C15         2.6378   -1.5229    0.0000 C.2       1 <0>        0.00000
     21 O2          2.6378   -2.3479    0.0000 O.2       1 <0>        0.00000
     22 N5          1.9233   -1.1104    0.0000 N.am      1 <0>        0.00000
     23 S1          4.0668    0.1271    0.0000 S.o2      1 <0>        0.00000
     24 O3          3.6543    0.8415    0.0000 O.2       1 <0>        0.00000
     25 O4          4.4793   -0.5874    0.0000 O.2       1 <0>        0.00000
     26 C16         4.7812    0.5396    0.0000 C.3       1 <0>        0.00000
     27 C17         5.4957    0.1271    0.0000 C.ar      1 <0>        0.00000
     28 C18         6.2102    0.5396    0.0000 C.ar      1 <0>        0.00000
     29 C19         6.9246    0.1271    0.0000 C.ar      1 <0>        0.00000
     30 C20         6.9246   -0.6979    0.0000 C.ar      1 <0>        0.00000
     31 C21         6.2102   -1.1104    0.0000 C.ar      1 <0>        0.00000
     32 C22         5.4957   -0.6979    0.0000 C.ar      1 <0>        0.00000
     33 N6          3.1341   -6.7847    0.0000 N.2       1 <0>        0.00000
     34 O5          3.6861   -7.3978    0.0000 O.3       1 <0>        0.00000
     35 H1          4.1960   -5.8286    0.0000 H         1 <0>        0.00000
     36 H2          4.1960   -5.8286    0.0000 H         1 <0>        0.00000
     37 H3          2.0300   -5.5585    0.0000 H         1 <0>        0.00000
     38 H4          2.0300   -5.5585    0.0000 H         1 <0>        0.00000
     39 H5          1.4780   -4.9454    0.0000 H         1 <0>        0.00000
     40 H6          1.4780   -4.9454    0.0000 H         1 <0>        0.00000
     41 H7          1.7329   -4.1608    0.0000 H         1 <0>        0.00000
     42 H8          2.5399   -3.9893    0.0000 H         1 <0>        0.00000
     43 H9          2.5399   -3.9893    0.0000 H         1 <0>        0.00000
     44 H10         3.0919   -4.6024    0.0000 H         1 <0>        0.00000
     45 H11         3.0919   -4.6024    0.0000 H         1 <0>        0.00000
     46 H12         1.1809   -3.5477    0.0000 H         1 <0>        0.00000
     47 H13         1.1809   -3.5477    0.0000 H         1 <0>        0.00000
     48 H14         1.4358   -2.7631    0.0000 H         1 <0>        0.00000
     49 H15         1.1387   -1.3654    0.0000 H         1 <0>        0.00000
     50 H16         0.6538   -0.6979    0.0000 H         1 <0>        0.00000
     51 H17         0.6538   -0.6979    0.0000 H         1 <0>        0.00000
     52 H18         1.1387   -0.0305    0.0000 H         1 <0>        0.00000
     53 H19         1.1387   -0.0305    0.0000 H         1 <0>        0.00000
     54 H20         1.9233   -0.2854    0.0000 H         1 <0>        0.00000
     55 H21         2.6378    0.1271    0.0000 H         1 <0>        0.00000
     56 H22         2.6378    0.1271    0.0000 H         1 <0>        0.00000
     57 H23         3.3523   -1.1104    0.0000 H         1 <0>        0.00000
     58 H24         3.3523   -1.1104    0.0000 H         1 <0>        0.00000
     59 H25         4.7812    0.5396    0.0000 H         1 <0>        0.00000
     60 H26         4.7812    0.5396    0.0000 H         1 <0>        0.00000
     61 H27         6.2102    0.5396    0.0000 H         1 <0>        0.00000
     62 H28         6.9246    0.1271    0.0000 H         1 <0>        0.00000
     63 H29         6.9246   -0.6979    0.0000 H         1 <0>        0.00000
     64 H30         6.2102   -1.1104    0.0000 H         1 <0>        0.00000
     65 H31         5.4957   -0.6979    0.0000 H         1 <0>        0.00000
     66 H32         3.6861   -7.3978    0.0000 H         1 <0>        0.00000
@<TRIPOS>BOND
     1    1    2 1
     2    2    3 1
     3    3    4 1
     4    4    5 1
     5    5    6 1
     6    6    7 1
     7    7    8 1
     8    3    8 1
     9    6    9 1
    10    9   10 1
    11   10   11 am
    12   11   12 2
    13   11   13 1
    14   13   14 1
    15   14   15 1
    16   15   16 1
    17   16   17 1
    18   17   18 1
    19   18   19 1
    20   19   20 1
    21   20   21 2
    22   20   22 am
    23   13   22 1
    24   16   22 1
    25   18   23 1
    26   23   24 2
    27   23   25 2
    28   23   26 1
    29   26   27 1
    30   27   28 ar
    31   28   29 ar
    32   29   30 ar
    33   30   31 ar
    34   31   32 ar
    35   27   32 ar
    36    2   33 2
    37   33   34 1
    38    1   35 1
    39    1   36 1
    40    4   37 1
    41    4   38 1
    42    5   39 1
    43    5   40 1
    44    6   41 1
    45    7   42 1
    46    7   43 1
    47    8   44 1
    48    8   45 1
    49    9   46 1
    50    9   47 1
    51   10   48 1
    52   13   49 1
    53   14   50 1
    54   14   51 1
    55   15   52 1
    56   15   53 1
    57   16   54 1
    58   17   55 1
    59   17   56 1
    60   19   57 1
    61   19   58 1
    62   26   59 1
    63   26   60 1
    64   28   61 1
    65   29   62 1
    66   30   63 1
    67   31   64 1
    68   32   65 1
    69   34   66 1
@<TRIPOS>SUBSTRUCTURE
     1 <0>         1 GROUP 0 A     ****
@<TRIPOS>MOLECULE
*****
   31    30     1     0     0
SMALL
NO_CHARGES

@<TRIPOS>ATOM
      1 Cl1         4.5080    2.2688    0.0000 Cl        1 <0>        0.00000
      2 S1          4.5080   -0.2063    0.0000 S.o2      1 <0>        0.00000
      3 S2          2.3645    0.2063    0.0000 S.o2      1 <0>        0.00000
      4 O1          4.9205    0.5082    0.0000 O.2       1 <0>        0.00000
      5 O2          4.0955   -0.9207    0.0000 O.2       1 <0>        0.00000
      6 O3          1.9520   -0.5082    0.0000 O.2       1 <0>        0.00000
      7 O4          2.7770    0.9207    0.0000 O.2       1 <0>        0.00000
      8 O5          3.7935   -1.4438    0.0000 O.2       1 <0>        0.00000
      9 N1          3.7935    0.2063    0.0000 N.pl3     1 <0>        0.00000
     10 N2          3.0791   -0.2063    0.0000 N.am      1 <0>        0.00000
     11 N3          2.3645   -1.4438    0.0000 N.am      1 <0>        0.00000
     12 C1          3.7935    1.0313    0.0000 C.3       1 <0>        0.00000
     13 C2          5.2224   -0.6188    0.0000 C.3       1 <0>        0.00000
     14 C3          4.5080    1.4438    0.0000 C.3       1 <0>        0.00000
     15 C4          3.0791   -1.0313    0.0000 C.2       1 <0>        0.00000
     16 C5          1.6500    0.6188    0.0000 C.3       1 <0>        0.00000
     17 C6          2.3645   -2.2688    0.0000 C.3       1 <0>        0.00000
     18 H1          2.3645   -1.4438    0.0000 H         1 <0>        0.00000
     19 H2          3.7935    1.0313    0.0000 H         1 <0>        0.00000
     20 H3          3.7935    1.0313    0.0000 H         1 <0>        0.00000
     21 H4          5.2224   -0.6188    0.0000 H         1 <0>        0.00000
     22 H5          5.2224   -0.6188    0.0000 H         1 <0>        0.00000
     23 H6          5.2224   -0.6188    0.0000 H         1 <0>        0.00000
     24 H7          4.5080    1.4438    0.0000 H         1 <0>        0.00000
     25 H8          4.5080    1.4438    0.0000 H         1 <0>        0.00000
     26 H9          1.6500    0.6188    0.0000 H         1 <0>        0.00000
     27 H10         1.6500    0.6188    0.0000 H         1 <0>        0.00000
     28 H11         1.6500    0.6188    0.0000 H         1 <0>        0.00000
     29 H12         2.3645   -2.2688    0.0000 H         1 <0>        0.00000
     30 H13         2.3645   -2.2688    0.0000 H         1 <0>        0.00000
     31 H14         2.3645   -2.2688    0.0000 H         1 <0>        0.00000
@<TRIPOS>BOND
     1    1   14 1
     2    2    4 2
     3    2    5 2
     4    2    9 1
     5    2   13 1
     6    3    6 2
     7    3    7 2
     8    3   10 1
     9    3   16 1
    10    8   15 2
    11    9   10 1
    12    9   12 1
    13   10   15 am
    14   11   15 am
    15   11   17 1
    16   12   14 1
    17   11   18 1
    18   12   19 1
    19   12   20 1
    20   13   21 1
    21   13   22 1
    22   13   23 1
    23   14   24 1
    24   14   25 1
    25   16   26 1
    26   16   27 1
    27   16   28 1
    28   17   29 1
    29   17   30 1
    30   17   31 1
@<TRIPOS>SUBSTRUCTURE
     1 <0>         1 GROUP 0 A     ****
@<TRIPOS>MOLECULE
RSA
   26    27     1     0     0
SMALL
NO_CHARGES

@<TRIPOS>ATOM
      1 C1         -1.7057    2.5749    0.0000 C.1       1 <0>        0.00000
      2 C2         -1.4507    1.7903    0.0000 C.1       1 <0>        0.00000
      3 C3         -1.1958    1.0057    0.0000 C.3       1 <0>        0.00000
      4 N1         -0.3888    0.8341    0.0000 N.3       1 <0>        0.00000
      5 C4         -0.1339    0.0495    0.0000 C.3       1 <0>        0.00000
      6 C5         -0.6188   -0.6179    0.0000 C.3       1 <0>        0.00000
      7 C6         -0.1339   -1.2854    0.0000 C.3       1 <0>        0.00000
      8 C7          0.6507   -1.0304    0.0000 C.ar      1 <0>        0.00000
      9 C8          0.6507   -0.2054    0.0000 C.ar      1 <0>        0.00000
     10 C9          1.3652    0.2071    0.0000 C.ar      1 <0>        0.00000
     11 C10         1.3652   -1.4429    0.0000 C.ar      1 <0>        0.00000
     12 C11         2.0797   -1.0304    0.0000 C.ar      1 <0>        0.00000
     13 C12         2.0797   -0.2054    0.0000 C.ar      1 <0>        0.00000
     14 H1         -0.7106    0.1408    0.0000 H         1 <0>        0.00000
     15 H2         -1.7057    2.5749    0.0000 H         1 <0>        0.00000
     16 H3         -1.1958    1.0057    0.0000 H         1 <0>        0.00000
     17 H4         -1.1958    1.0057    0.0000 H         1 <0>        0.00000
     18 H5         -0.3888    0.8341    0.0000 H         1 <0>        0.00000
     19 H6         -0.6188   -0.6179    0.0000 H         1 <0>        0.00000
     20 H7         -0.6188   -0.6179    0.0000 H         1 <0>        0.00000
     21 H8         -0.1339   -1.2854    0.0000 H         1 <0>        0.00000
     22 H9         -0.1339   -1.2854    0.0000 H         1 <0>        0.00000
     23 H10         1.3652    0.2071    0.0000 H         1 <0>        0.00000
     24 H11         1.3652   -1.4429    0.0000 H         1 <0>        0.00000
     25 H12         2.0797   -1.0304    0.0000 H         1 <0>        0.00000
     26 H13         2.0797   -0.2054    0.0000 H         1 <0>        0.00000
@<TRIPOS>BOND
     1    1    2 3
     2    2    3 1
     3    3    4 1
     4    4    5 1
     5    5    6 1
     6    5    9 1
     7    5   14 1
     8    6    7 1
     9    7    8 1
    10    8    9 ar
    11    8   11 ar
    12    9   10 ar
    13   10   13 ar
    14   11   12 ar
    15   12   13 ar
    16    1   15 1
    17    3   16 1
    18    3   17 1
    19    4   18 1
    20    6   19 1
    21    6   20 1
    22    7   21 1
    23    7   22 1
    24   10   23 1
    25   11   24 1
    26   12   25 1
    27   13   26 1
@<TRIPOS>SUBSTRUCTURE
     1 <0>         1 GROUP 0 A     ****
@<TRIPOS>MOLECULE
*****
   71    77     1     0     0
SMALL
NO_CHARGES

@<TRIPOS>ATOM
      1 O1          0.1278    0.0746    0.0000 O.2       1 <0>        0.00000
      2 C1         -0.0288   -0.7354    0.0000 C.2       1 <0>        0.00000
      3 N1         -0.7762   -1.0848    0.0000 N.am      1 <0>        0.00000
      4 C2         -0.6749   -1.9036    0.0000 C.2       1 <0>        0.00000
      5 O2         -1.2777   -2.4668    0.0000 O.2       1 <0>        0.00000
      6 C3          0.1351   -2.0602    0.0000 C.3       1 <0>        0.00000
      7 C4          0.5344   -1.3383    0.0000 C.3       1 <0>        0.00000
      8 C5          1.1407   -0.9495    0.0000 C.3       1 <0>        0.00000
      9 C6          1.9362   -1.4148    0.0000 C.3       1 <0>        0.00000
     10 C7          1.6411   -2.0402    0.0000 C.3       1 <0>        0.00000
     11 C8          0.9106   -1.6699    0.0000 C.3       1 <0>        0.00000
     12 C9          0.9807   -0.1341    0.0000 C.3       1 <0>        0.00000
     13 C10        -1.4982   -0.6855    0.0000 C.3       1 <0>        0.00000
     14 C11        -2.2049   -1.1111    0.0000 C.3       1 <0>        0.00000
     15 C12        -2.1897   -1.9360    0.0000 C.3       1 <0>        0.00000
     16 C13        -2.8965   -2.3615    0.0000 C.3       1 <0>        0.00000
     17 C14        -3.6184   -1.9623    0.0000 C.3       1 <0>        0.00000
     18 C15        -3.6336   -1.1374    0.0000 C.3       1 <0>        0.00000
     19 C16        -2.9269   -0.7118    0.0000 C.3       1 <0>        0.00000
     20 C17        -2.9420    0.1130    0.0000 C.3       1 <0>        0.00000
     21 N2         -2.2353    0.5386    0.0000 N.3       1 <0>        0.00000
     22 C18        -2.2505    1.3635    0.0000 C.3       1 <0>        0.00000
     23 C19        -1.5437    1.7891    0.0000 C.3       1 <0>        0.00000
     24 N3         -0.8218    1.3898    0.0000 N.pl3     1 <0>        0.00000
     25 C20        -0.1150    1.8154    0.0000 C.ar      1 <0>        0.00000
     26 N4         -0.0439    2.6373    0.0000 N.ar      1 <0>        0.00000
     27 S1          0.7598    2.8236    0.0000 S.3       1 <0>        0.00000
     28 C21         1.1854    2.1169    0.0000 C.ar      1 <0>        0.00000
     29 C22         1.9954    1.9602    0.0000 C.ar      1 <0>        0.00000
     30 C23         2.2647    1.1804    0.0000 C.ar      1 <0>        0.00000
     31 C24         1.7240    0.5573    0.0000 C.ar      1 <0>        0.00000
     32 C25         0.9141    0.7139    0.0000 C.ar      1 <0>        0.00000
     33 C26         0.6447    1.4937    0.0000 C.ar      1 <0>        0.00000
     34 C27        -0.8066    0.5649    0.0000 C.3       1 <0>        0.00000
     35 C28        -1.5133    0.1393    0.0000 C.3       1 <0>        0.00000
     36 H1          0.1351   -2.0602    0.0000 H         1 <0>        0.00000
     37 H2          0.5344   -1.3383    0.0000 H         1 <0>        0.00000
     38 H3          1.1407   -0.9495    0.0000 H         1 <0>        0.00000
     39 H4          1.9362   -1.4148    0.0000 H         1 <0>        0.00000
     40 H5          1.9362   -1.4148    0.0000 H         1 <0>        0.00000
     41 H6          1.6411   -2.0402    0.0000 H         1 <0>        0.00000
     42 H7          1.6411   -2.0402    0.0000 H         1 <0>        0.00000
     43 H8          0.9106   -1.6699    0.0000 H         1 <0>        0.00000
     44 H9          0.9807   -0.1341    0.0000 H         1 <0>        0.00000
     45 H10         0.9807   -0.1341    0.0000 H         1 <0>        0.00000
     46 H11        -1.4982   -0.6855    0.0000 H         1 <0>        0.00000
     47 H12        -1.4982   -0.6855    0.0000 H         1 <0>        0.00000
     48 H13        -2.2049   -1.1111    0.0000 H         1 <0>        0.00000
     49 H14        -2.1897   -1.9360    0.0000 H         1 <0>        0.00000
     50 H15        -2.1897   -1.9360    0.0000 H         1 <0>        0.00000
     51 H16        -2.8965   -2.3615    0.0000 H         1 <0>        0.00000
     52 H17        -2.8965   -2.3615    0.0000 H         1 <0>        0.00000
     53 H18        -3.6184   -1.9623    0.0000 H         1 <0>        0.00000
     54 H19        -3.6184   -1.9623    0.0000 H         1 <0>        0.00000
     55 H20        -3.6336   -1.1374    0.0000 H         1 <0>        0.00000
     56 H21        -3.6336   -1.1374    0.0000 H         1 <0>        0.00000
     57 H22        -2.9269   -0.7118    0.0000 H         1 <0>        0.00000
     58 H23        -2.9420    0.1130    0.0000 H         1 <0>        0.00000
     59 H24        -2.9420    0.1130    0.0000 H         1 <0>        0.00000
     60 H25        -2.2505    1.3635    0.0000 H         1 <0>        0.00000
     61 H26        -2.2505    1.3635    0.0000 H         1 <0>        0.00000
     62 H27        -1.5437    1.7891    0.0000 H         1 <0>        0.00000
     63 H28        -1.5437    1.7891    0.0000 H         1 <0>        0.00000
     64 H29         1.9954    1.9602    0.0000 H         1 <0>        0.00000
     65 H30         2.2647    1.1804    0.0000 H         1 <0>        0.00000
     66 H31         1.7240    0.5573    0.0000 H         1 <0>        0.00000
     67 H32         0.9141    0.7139    0.0000 H         1 <0>        0.00000
     68 H33        -0.8066    0.5649    0.0000 H         1 <0>        0.00000
     69 H34        -0.8066    0.5649    0.0000 H         1 <0>        0.00000
     70 H35        -1.5133    0.1393    0.0000 H         1 <0>        0.00000
     71 H36        -1.5133    0.1393    0.0000 H         1 <0>        0.00000
@<TRIPOS>BOND
     1    1    2 2
     2    2    3 am
     3    3    4 am
     4    4    5 2
     5    4    6 1
     6    6    7 1
     7    2    7 1
     8    7    8 1
     9    8    9 1
    10    9   10 1
    11   10   11 1
    12    6   11 1
    13   11   12 1
    14    8   12 1
    15    3   13 1
    16   13   14 1
    17   14   15 1
    18   15   16 1
    19   16   17 1
    20   17   18 1
    21   18   19 1
    22   14   19 1
    23   19   20 1
    24   20   21 1
    25   21   22 1
    26   22   23 1
    27   23   24 1
    28   24   25 1
    29   25   26 2
    30   26   27 1
    31   27   28 1
    32   28   29 ar
    33   29   30 ar
    34   30   31 ar
    35   31   32 ar
    36   32   33 ar
    37   28   33 ar
    38   25   33 1
    39   24   34 1
    40   34   35 1
    41   21   35 1
    42    6   36 1
    43    7   37 1
    44    8   38 1
    45    9   39 1
    46    9   40 1
    47   10   41 1
    48   10   42 1
    49   11   43 1
    50   12   44 1
    51   12   45 1
    52   13   46 1
    53   13   47 1
    54   14   48 1
    55   15   49 1
    56   15   50 1
    57   16   51 1
    58   16   52 1
    59   17   53 1
    60   17   54 1
    61   18   55 1
    62   18   56 1
    63   19   57 1
    64   20   58 1
    65   20   59 1
    66   22   60 1
    67   22   61 1
    68   23   62 1
    69   23   63 1
    70   29   64 1
    71   30   65 1
    72   31   66 1
    73   32   67 1
    74   34   68 1
    75   34   69 1
    76   35   70 1
    77   35   71 1
@<TRIPOS>SUBSTRUCTURE
     1 <0>         1 GROUP 0 A     ****
@<TRIPOS>MOLECULE
944
   92    93     1     0     0
SMALL
NO_CHARGES

@<TRIPOS>ATOM
      1 O1          9.8294   13.2993    0.0000 O.3       1 <0>        0.00000
      2 O2          4.8281    3.8116    0.0000 O.3       1 <0>        0.00000
      3 O3         10.5440   12.0618    0.0000 O.2       1 <0>        0.00000
      4 O4          4.1135    5.0491    0.0000 O.2       1 <0>        0.00000
      5 N1         11.2584   15.7743    0.0000 N.4       1 <0>        0.00000
      6 N2          3.3991    1.3365    0.0000 N.4       1 <0>        0.00000
      7 N3          9.1150   12.0618    0.0000 N.am      1 <0>        0.00000
      8 N4          5.5426    5.0491    0.0000 N.am      1 <0>        0.00000
      9 C1          7.6860    8.7617    0.0000 C.3       1 <0>        0.00000
     10 C2          6.9715    8.3492    0.0000 C.3       1 <0>        0.00000
     11 C3          7.6860    9.5867    0.0000 C.3       1 <0>        0.00000
     12 C4          6.9715    7.5242    0.0000 C.3       1 <0>        0.00000
     13 C5          8.4005    9.9992    0.0000 C.3       1 <0>        0.00000
     14 C6          6.2570    7.1117    0.0000 C.3       1 <0>        0.00000
     15 C7          8.4005   10.8242    0.0000 C.3       1 <0>        0.00000
     16 C8          6.2570    6.2866    0.0000 C.3       1 <0>        0.00000
     17 C9          9.1150   11.2367    0.0000 C.3       1 <0>        0.00000
     18 C10         5.5426    5.8741    0.0000 C.3       1 <0>        0.00000
     19 C11        11.2584   14.9493    0.0000 C.ar      1 <0>        0.00000
     20 C12         3.3991    2.1615    0.0000 C.ar      1 <0>        0.00000
     21 C13        11.2584   16.5994    0.0000 C.3       1 <0>        0.00000
     22 C14        12.0835   15.7743    0.0000 C.3       1 <0>        0.00000
     23 C15        10.4334   15.7743    0.0000 C.3       1 <0>        0.00000
     24 C16         3.3991    0.5115    0.0000 C.3       1 <0>        0.00000
     25 C17         2.5741    1.3365    0.0000 C.3       1 <0>        0.00000
     26 C18         4.2241    1.3365    0.0000 C.3       1 <0>        0.00000
     27 C19        10.5440   14.5368    0.0000 C.ar      1 <0>        0.00000
     28 C20         4.1135    2.5741    0.0000 C.ar      1 <0>        0.00000
     29 C21        11.9729   14.5368    0.0000 C.ar      1 <0>        0.00000
     30 C22         2.6846    2.5741    0.0000 C.ar      1 <0>        0.00000
     31 C23        10.5440   13.7118    0.0000 C.ar      1 <0>        0.00000
     32 C24         4.1135    3.3991    0.0000 C.ar      1 <0>        0.00000
     33 C25         9.8294   12.4743    0.0000 C.2       1 <0>        0.00000
     34 C26         4.8281    4.6366    0.0000 C.2       1 <0>        0.00000
     35 C27         8.4005   12.4743    0.0000 C.3       1 <0>        0.00000
     36 C28         6.2570    4.6366    0.0000 C.3       1 <0>        0.00000
     37 C29        11.9729   13.7118    0.0000 C.ar      1 <0>        0.00000
     38 C30         2.6846    3.3991    0.0000 C.ar      1 <0>        0.00000
     39 C31        11.2584   13.2993    0.0000 C.ar      1 <0>        0.00000
     40 C32         3.3991    3.8116    0.0000 C.ar      1 <0>        0.00000
     41 H1          7.6860    8.7617    0.0000 H         1 <0>        0.00000
     42 H2          7.6860    8.7617    0.0000 H         1 <0>        0.00000
     43 H3          6.9715    8.3492    0.0000 H         1 <0>        0.00000
     44 H4          6.9715    8.3492    0.0000 H         1 <0>        0.00000
     45 H5          7.6860    9.5867    0.0000 H         1 <0>        0.00000
     46 H6          7.6860    9.5867    0.0000 H         1 <0>        0.00000
     47 H7          6.9715    7.5242    0.0000 H         1 <0>        0.00000
     48 H8          6.9715    7.5242    0.0000 H         1 <0>        0.00000
     49 H9          8.4005    9.9992    0.0000 H         1 <0>        0.00000
     50 H10         8.4005    9.9992    0.0000 H         1 <0>        0.00000
     51 H11         6.2570    7.1117    0.0000 H         1 <0>        0.00000
     52 H12         6.2570    7.1117    0.0000 H         1 <0>        0.00000
     53 H13         8.4005   10.8242    0.0000 H         1 <0>        0.00000
     54 H14         8.4005   10.8242    0.0000 H         1 <0>        0.00000
     55 H15         6.2570    6.2866    0.0000 H         1 <0>        0.00000
     56 H16         6.2570    6.2866    0.0000 H         1 <0>        0.00000
     57 H17         9.1150   11.2367    0.0000 H         1 <0>        0.00000
     58 H18         9.1150   11.2367    0.0000 H         1 <0>        0.00000
     59 H19         5.5426    5.8741    0.0000 H         1 <0>        0.00000
     60 H20         5.5426    5.8741    0.0000 H         1 <0>        0.00000
     61 H21        11.2584   16.5994    0.0000 H         1 <0>        0.00000
     62 H22        11.2584   16.5994    0.0000 H         1 <0>        0.00000
     63 H23        11.2584   16.5994    0.0000 H         1 <0>        0.00000
     64 H24        12.0835   15.7743    0.0000 H         1 <0>        0.00000
     65 H25        12.0835   15.7743    0.0000 H         1 <0>        0.00000
     66 H26        12.0835   15.7743    0.0000 H         1 <0>        0.00000
     67 H27        10.4334   15.7743    0.0000 H         1 <0>        0.00000
     68 H28        10.4334   15.7743    0.0000 H         1 <0>        0.00000
     69 H29        10.4334   15.7743    0.0000 H         1 <0>        0.00000
     70 H30         3.3991    0.5115    0.0000 H         1 <0>        0.00000
     71 H31         3.3991    0.5115    0.0000 H         1 <0>        0.00000
     72 H32         3.3991    0.5115    0.0000 H         1 <0>        0.00000
     73 H33         2.5741    1.3365    0.0000 H         1 <0>        0.00000
     74 H34         2.5741    1.3365    0.0000 H         1 <0>        0.00000
     75 H35         2.5741    1.3365    0.0000 H         1 <0>        0.00000
     76 H36         4.2241    1.3365    0.0000 H         1 <0>        0.00000
     77 H37         4.2241    1.3365    0.0000 H         1 <0>        0.00000
     78 H38         4.2241    1.3365    0.0000 H         1 <0>        0.00000
     79 H39        10.5440   14.5368    0.0000 H         1 <0>        0.00000
     80 H40         4.1135    2.5741    0.0000 H         1 <0>        0.00000
     81 H41        11.9729   14.5368    0.0000 H         1 <0>        0.00000
     82 H42         2.6846    2.5741    0.0000 H         1 <0>        0.00000
     83 H43         8.4005   12.4743    0.0000 H         1 <0>        0.00000
     84 H44         8.4005   12.4743    0.0000 H         1 <0>        0.00000
     85 H45         8.4005   12.4743    0.0000 H         1 <0>        0.00000
     86 H46         6.2570    4.6366    0.0000 H         1 <0>        0.00000
     87 H47         6.2570    4.6366    0.0000 H         1 <0>        0.00000
     88 H48         6.2570    4.6366    0.0000 H         1 <0>        0.00000
     89 H49        11.9729   13.7118    0.0000 H         1 <0>        0.00000
     90 H50         2.6846    3.3991    0.0000 H         1 <0>        0.00000
     91 H51        11.2584   13.2993    0.0000 H         1 <0>        0.00000
     92 H52         3.3991    3.8116    0.0000 H         1 <0>        0.00000
@<TRIPOS>BOND
     1    1   31 1
     2    1   33 1
     3    2   32 1
     4    2   34 1
     5    3   33 2
     6    4   34 2
     7    5   19 1
     8    5   21 1
     9    5   22 1
    10    5   23 1
    11    6   20 1
    12    6   24 1
    13    6   25 1
    14    6   26 1
    15    7   17 1
    16    7   33 am
    17    7   35 1
    18    8   18 1
    19    8   34 am
    20    8   36 1
    21    9   10 1
    22    9   11 1
    23   10   12 1
    24   11   13 1
    25   12   14 1
    26   13   15 1
    27   14   16 1
    28   15   17 1
    29   16   18 1
    30   19   27 ar
    31   19   29 ar
    32   20   28 ar
    33   20   30 ar
    34   27   31 ar
    35   28   32 ar
    36   29   37 ar
    37   30   38 ar
    38   31   39 ar
    39   32   40 ar
    40   37   39 ar
    41   38   40 ar
    42    9   41 1
    43    9   42 1
    44   10   43 1
    45   10   44 1
    46   11   45 1
    47   11   46 1
    48   12   47 1
    49   12   48 1
    50   13   49 1
    51   13   50 1
    52   14   51 1
    53   14   52 1
    54   15   53 1
    55   15   54 1
    56   16   55 1
    57   16   56 1
    58   17   57 1
    59   17   58 1
    60   18   59 1
    61   18   60 1
    62   21   61 1
    63   21   62 1
    64   21   63 1
    65   22   64 1
    66   22   65 1
    67   22   66 1
    68   23   67 1
    69   23   68 1
    70   23   69 1
    71   24   70 1
    72   24   71 1
    73   24   72 1
    74   25   73 1
    75   25   74 1
    76   25   75 1
    77   26   76 1
    78   26   77 1
    79   26   78 1
    80   27   79 1
    81   28   80 1
    82   29   81 1
    83   30   82 1
    84   35   83 1
    85   35   84 1
    86   35   85 1
    87   36   86 1
    88   36   87 1
    89   36   88 1
    90   37   89 1
    91   38   90 1
    92   39   91 1
    93   40   92 1
@<TRIPOS>SUBSTRUCTURE
     1 <0>         1 GROUP 0 A     ****
@<TRIPOS>MOLECULE
*****
   38    39     1     0     0
SMALL
NO_CHARGES

@<TRIPOS>ATOM
      1 C1          1.3222    7.2402    0.0000 C.3       1 <0>        0.00000
      2 C2          2.0367    6.8277    0.0000 C.ar      1 <0>        0.00000
      3 N1          2.7512    7.2402    0.0000 N.ar      1 <0>        0.00000
      4 C3          3.4656    6.8277    0.0000 C.ar      1 <0>        0.00000
      5 C4          3.4656    6.0027    0.0000 C.ar      1 <0>        0.00000
      6 C5          4.1801    5.5902    0.0000 C.3       1 <0>        0.00000
      7 O1          4.8946    6.0027    0.0000 O.3       1 <0>        0.00000
      8 P1          5.6091    5.5902    0.0000 P.3       1 <0>        0.00000
      9 O2          6.3235    5.1777    0.0000 O.3       1 <0>        0.00000
     10 O3          6.0216    6.3047    0.0000 O.3       1 <0>        0.00000
     11 O4          5.1966    4.8757    0.0000 O.2       1 <0>        0.00000
     12 C6          2.7512    5.5902    0.0000 C.ar      1 <0>        0.00000
     13 C7          2.7512    4.7652    0.0000 C.3       1 <0>        0.00000
     14 N2          3.4656    4.3527    0.0000 N.3       1 <0>        0.00000
     15 C8          3.4656    3.5277    0.0000 C.3       1 <0>        0.00000
     16 C9          4.1331    3.0428    0.0000 C.3       1 <0>        0.00000
     17 O5          3.8781    2.2581    0.0000 O.3       1 <0>        0.00000
     18 N3          3.0531    2.2581    0.0000 N.am      1 <0>        0.00000
     19 C10         2.7982    3.0428    0.0000 C.2       1 <0>        0.00000
     20 O6          2.0136    3.2977    0.0000 O.2       1 <0>        0.00000
     21 C11         2.0367    6.0027    0.0000 C.ar      1 <0>        0.00000
     22 O7          1.3222    5.5902    0.0000 O.3       1 <0>        0.00000
     23 H1          1.3222    7.2402    0.0000 H         1 <0>        0.00000
     24 H2          1.3222    7.2402    0.0000 H         1 <0>        0.00000
     25 H3          1.3222    7.2402    0.0000 H         1 <0>        0.00000
     26 H4          3.4656    6.8277    0.0000 H         1 <0>        0.00000
     27 H5          4.1801    5.5902    0.0000 H         1 <0>        0.00000
     28 H6          4.1801    5.5902    0.0000 H         1 <0>        0.00000
     29 H7          6.3235    5.1777    0.0000 H         1 <0>        0.00000
     30 H8          6.0216    6.3047    0.0000 H         1 <0>        0.00000
     31 H9          2.7512    4.7652    0.0000 H         1 <0>        0.00000
     32 H10         2.7512    4.7652    0.0000 H         1 <0>        0.00000
     33 H11         3.4656    4.3527    0.0000 H         1 <0>        0.00000
     34 H12         3.4656    3.5277    0.0000 H         1 <0>        0.00000
     35 H13         4.1331    3.0428    0.0000 H         1 <0>        0.00000
     36 H14         4.1331    3.0428    0.0000 H         1 <0>        0.00000
     37 H15         3.0531    2.2581    0.0000 H         1 <0>        0.00000
     38 H16         1.3222    5.5902    0.0000 H         1 <0>        0.00000
@<TRIPOS>BOND
     1    1    2 1
     2    2    3 ar
     3    3    4 ar
     4    4    5 ar
     5    5    6 1
     6    6    7 1
     7    7    8 1
     8    8    9 1
     9    8   10 1
    10    8   11 2
    11    5   12 ar
    12   12   13 1
    13   13   14 1
    14   14   15 1
    15   15   16 1
    16   16   17 1
    17   17   18 1
    18   18   19 am
    19   15   19 1
    20   19   20 2
    21   12   21 ar
    22    2   21 ar
    23   21   22 1
    24    1   23 1
    25    1   24 1
    26    1   25 1
    27    4   26 1
    28    6   27 1
    29    6   28 1
    30    9   29 1
    31   10   30 1
    32   13   31 1
    33   13   32 1
    34   14   33 1
    35   15   34 1
    36   16   35 1
    37   16   36 1
    38   18   37 1
    39   22   38 1
@<TRIPOS>SUBSTRUCTURE
     1 <0>         1 GROUP 0 A     ****
@<TRIPOS>MOLECULE
699
   54    56     1     0     0
SMALL
NO_CHARGES

@<TRIPOS>ATOM
      1 F1          0.0316    4.1043    0.0000 F         1 <0>        0.00000
      2 C1         -0.1400    3.2974    0.0000 C.3       1 <0>        0.00000
      3 F2         -0.9469    3.4689    0.0000 F         1 <0>        0.00000
      4 F3          0.6670    3.1258    0.0000 F         1 <0>        0.00000
      5 C2         -0.3115    2.4904    0.0000 C.ar      1 <0>        0.00000
      6 C3          0.3016    1.9383    0.0000 C.ar      1 <0>        0.00000
      7 C4          0.1301    1.1314    0.0000 C.ar      1 <0>        0.00000
      8 C5         -1.0961    2.2354    0.0000 C.ar      1 <0>        0.00000
      9 C6         -1.2676    1.4285    0.0000 C.ar      1 <0>        0.00000
     10 C7         -0.6545    0.8764    0.0000 C.ar      1 <0>        0.00000
     11 C8         -0.8261    0.0695    0.0000 C.2       1 <0>        0.00000
     12 O1         -0.2130   -0.4826    0.0000 O.2       1 <0>        0.00000
     13 N1         -1.6107   -0.1855    0.0000 N.am      1 <0>        0.00000
     14 C9         -1.8656   -0.9701    0.0000 C.3       1 <0>        0.00000
     15 C10        -1.0587   -1.1416    0.0000 C.2       1 <0>        0.00000
     16 O2         -0.5066   -0.5285    0.0000 O.3       1 <0>        0.00000
     17 O3         -0.8037   -1.9262    0.0000 O.2       1 <0>        0.00000
     18 C11        -1.9519   -1.7906    0.0000 C.3       1 <0>        0.00000
     19 C12        -2.7055   -2.1261    0.0000 C.3       1 <0>        0.00000
     20 C13        -2.7918   -2.9466    0.0000 C.3       1 <0>        0.00000
     21 C14        -3.3730   -1.6412    0.0000 C.3       1 <0>        0.00000
     22 C15        -2.6906   -0.9701    0.0000 C.3       1 <0>        0.00000
     23 C16        -2.9456   -0.1855    0.0000 C.3       1 <0>        0.00000
     24 C17        -3.7302    0.0695    0.0000 C.2       1 <0>        0.00000
     25 O4         -4.3433   -0.4826    0.0000 O.3       1 <0>        0.00000
     26 O5         -3.9017    0.8764    0.0000 O.2       1 <0>        0.00000
     27 C18        -2.2781    0.2995    0.0000 C.3       1 <0>        0.00000
     28 C19        -2.2781    1.1245    0.0000 C.ar      1 <0>        0.00000
     29 S1         -2.9456    1.6094    0.0000 S.3       1 <0>        0.00000
     30 C20        -1.6107    1.6094    0.0000 C.ar      1 <0>        0.00000
     31 C21        -1.8656    2.3940    0.0000 C.ar      1 <0>        0.00000
     32 C22        -2.6906    2.3940    0.0000 C.ar      1 <0>        0.00000
     33 H1         -1.7578    0.5645    0.0000 H         1 <0>        0.00000
     34 H2         -3.3585   -0.5984    0.0000 H         1 <0>        0.00000
     35 H3          0.3016    1.9383    0.0000 H         1 <0>        0.00000
     36 H4          0.1301    1.1314    0.0000 H         1 <0>        0.00000
     37 H5         -1.0961    2.2354    0.0000 H         1 <0>        0.00000
     38 H6         -1.2676    1.4285    0.0000 H         1 <0>        0.00000
     39 H7         -0.5066   -0.5285    0.0000 H         1 <0>        0.00000
     40 H8         -1.9519   -1.7906    0.0000 H         1 <0>        0.00000
     41 H9         -1.9519   -1.7906    0.0000 H         1 <0>        0.00000
     42 H10        -2.7055   -2.1261    0.0000 H         1 <0>        0.00000
     43 H11        -2.7918   -2.9466    0.0000 H         1 <0>        0.00000
     44 H12        -2.7918   -2.9466    0.0000 H         1 <0>        0.00000
     45 H13        -2.7918   -2.9466    0.0000 H         1 <0>        0.00000
     46 H14        -3.3730   -1.6412    0.0000 H         1 <0>        0.00000
     47 H15        -3.3730   -1.6412    0.0000 H         1 <0>        0.00000
     48 H16        -3.3730   -1.6412    0.0000 H         1 <0>        0.00000
     49 H17        -2.6906   -0.9701    0.0000 H         1 <0>        0.00000
     50 H18        -2.6906   -0.9701    0.0000 H         1 <0>        0.00000
     51 H19        -4.3433   -0.4826    0.0000 H         1 <0>        0.00000
     52 H20        -1.6107    1.6094    0.0000 H         1 <0>        0.00000
     53 H21        -1.8656    2.3940    0.0000 H         1 <0>        0.00000
     54 H22        -2.6906    2.3940    0.0000 H         1 <0>        0.00000
@<TRIPOS>BOND
     1    1    2 1
     2    2    3 1
     3    2    4 1
     4    2    5 1
     5    5    6 ar
     6    5    8 ar
     7    6    7 ar
     8    7   10 ar
     9    8    9 ar
    10    9   10 ar
    11   10   11 1
    12   11   12 2
    13   11   13 am
    14   13   14 1
    15   13   27 1
    16   14   15 1
    17   14   18 1
    18   14   22 1
    19   15   16 1
    20   15   17 2
    21   18   19 1
    22   19   20 1
    23   19   21 1
    24   22   23 1
    25   23   24 1
    26   23   27 1
    27   23   34 1
    28   24   25 1
    29   24   26 2
    30   27   28 1
    31   27   33 1
    32   28   29 1
    33   28   30 2
    34   29   32 1
    35   30   31 1
    36   31   32 2
    37    6   35 1
    38    7   36 1
    39    8   37 1
    40    9   38 1
    41   16   39 1
    42   18   40 1
    43   18   41 1
    44   19   42 1
    45   20   43 1
    46   20   44 1
    47   20   45 1
    48   21   46 1
    49   21   47 1
    50   21   48 1
    51   22   49 1
    52   22   50 1
    53   25   51 1
    54   30   52 1
    55   31   53 1
    56   32   54 1
@<TRIPOS>SUBSTRUCTURE
     1 <0>         1 GROUP 0 A     ****
@<TRIPOS>MOLECULE
*****
   88    91     1     0     0
SMALL
NO_CHARGES

@<TRIPOS>ATOM
      1 C1          6.9377  -11.8238    0.0000 C.ar      1 <0>        0.00000
      2 C2          6.2232  -12.2363    0.0000 C.ar      1 <0>        0.00000
      3 C3          6.2232  -13.0613    0.0000 C.ar      1 <0>        0.00000
      4 C4          6.9377  -13.4739    0.0000 C.ar      1 <0>        0.00000
      5 C5          7.6522  -13.0613    0.0000 C.ar      1 <0>        0.00000
      6 C6          7.6522  -12.2363    0.0000 C.ar      1 <0>        0.00000
      7 C7          8.3666  -11.8238    0.0000 C.3       1 <0>        0.00000
      8 C8          8.3666  -13.4739    0.0000 C.3       1 <0>        0.00000
      9 C9          9.0811  -13.0613    0.0000 C.3       1 <0>        0.00000
     10 C10         9.0811  -12.2363    0.0000 C.3       1 <0>        0.00000
     11 C11         9.0811  -10.5863    0.0000 C.3       1 <0>        0.00000
     12 C12         8.3666  -10.9988    0.0000 C.3       1 <0>        0.00000
     13 C13         9.7956  -11.8238    0.0000 C.3       1 <0>        0.00000
     14 C14         9.7956  -10.9988    0.0000 C.3       1 <0>        0.00000
     15 C15        10.5802  -10.7438    0.0000 C.3       1 <0>        0.00000
     16 C16        10.5802  -12.0787    0.0000 C.3       1 <0>        0.00000
     17 C17        11.0651  -11.4113    0.0000 C.3       1 <0>        0.00000
     18 O1          5.5087  -13.4738    0.0000 O.3       1 <0>        0.00000
     19 H1          8.3666  -12.6488    0.0000 H         1 <0>        0.00000
     20 H2          9.7956  -12.6488    0.0000 H         1 <0>        0.00000
     21 C18         9.7956  -13.4738    0.0000 C.3       1 <0>        0.00000
     22 C19        10.5100  -13.0613    0.0000 C.3       1 <0>        0.00000
     23 C20        11.2245  -13.4738    0.0000 C.3       1 <0>        0.00000
     24 C21        11.9390  -13.0613    0.0000 C.3       1 <0>        0.00000
     25 C22        12.6534  -13.4738    0.0000 C.3       1 <0>        0.00000
     26 C23        13.3679  -13.0613    0.0000 C.3       1 <0>        0.00000
     27 C24        14.0824  -13.4738    0.0000 C.3       1 <0>        0.00000
     28 C25        14.7969  -13.0613    0.0000 C.3       1 <0>        0.00000
     29 C26        15.5113  -13.4738    0.0000 C.3       1 <0>        0.00000
     30 S1         16.2258  -13.0613    0.0000 S.o       1 <0>        0.00000
     31 O2         16.2258  -12.2363    0.0000 O.2       1 <0>        0.00000
     32 C27        16.9403  -13.4738    0.0000 C.3       1 <0>        0.00000
     33 C28        17.6547  -13.0613    0.0000 C.3       1 <0>        0.00000
     34 C29        18.3692  -13.4738    0.0000 C.3       1 <0>        0.00000
     35 C30        19.0837  -13.0613    0.0000 C.3       1 <0>        0.00000
     36 C31        19.7982  -13.4738    0.0000 C.3       1 <0>        0.00000
     37 F1         18.6712  -12.3469    0.0000 F         1 <0>        0.00000
     38 F2         19.4962  -12.3469    0.0000 F         1 <0>        0.00000
     39 F3         20.5126  -13.0613    0.0000 F         1 <0>        0.00000
     40 F4         19.7982  -14.2988    0.0000 F         1 <0>        0.00000
     41 F5         20.3815  -14.0572    0.0000 F         1 <0>        0.00000
     42 O3         10.7937   -9.9470    0.0000 O.3       1 <0>        0.00000
     43 C32         9.7956  -10.1738    0.0000 C.3       1 <0>        0.00000
     44 H3          6.9377  -11.8238    0.0000 H         1 <0>        0.00000
     45 H4          6.2232  -12.2363    0.0000 H         1 <0>        0.00000
     46 H5          6.9377  -13.4739    0.0000 H         1 <0>        0.00000
     47 H6          8.3666  -13.4739    0.0000 H         1 <0>        0.00000
     48 H7          8.3666  -13.4739    0.0000 H         1 <0>        0.00000
     49 H8          9.0811  -13.0613    0.0000 H         1 <0>        0.00000
     50 H9          9.0811  -12.2363    0.0000 H         1 <0>        0.00000
     51 H10         9.0811  -10.5863    0.0000 H         1 <0>        0.00000
     52 H11         9.0811  -10.5863    0.0000 H         1 <0>        0.00000
     53 H12         8.3666  -10.9988    0.0000 H         1 <0>        0.00000
     54 H13         8.3666  -10.9988    0.0000 H         1 <0>        0.00000
     55 H14        10.5802  -10.7438    0.0000 H         1 <0>        0.00000
     56 H15        10.5802  -12.0787    0.0000 H         1 <0>        0.00000
     57 H16        10.5802  -12.0787    0.0000 H         1 <0>        0.00000
     58 H17        11.0651  -11.4113    0.0000 H         1 <0>        0.00000
     59 H18        11.0651  -11.4113    0.0000 H         1 <0>        0.00000
     60 H19         5.5087  -13.4738    0.0000 H         1 <0>        0.00000
     61 H20         9.7956  -13.4738    0.0000 H         1 <0>        0.00000
     62 H21         9.7956  -13.4738    0.0000 H         1 <0>        0.00000
     63 H22        10.5100  -13.0613    0.0000 H         1 <0>        0.00000
     64 H23        10.5100  -13.0613    0.0000 H         1 <0>        0.00000
     65 H24        11.2245  -13.4738    0.0000 H         1 <0>        0.00000
     66 H25        11.2245  -13.4738    0.0000 H         1 <0>        0.00000
     67 H26        11.9390  -13.0613    0.0000 H         1 <0>        0.00000
     68 H27        11.9390  -13.0613    0.0000 H         1 <0>        0.00000
     69 H28        12.6534  -13.4738    0.0000 H         1 <0>        0.00000
     70 H29        12.6534  -13.4738    0.0000 H         1 <0>        0.00000
     71 H30        13.3679  -13.0613    0.0000 H         1 <0>        0.00000
     72 H31        13.3679  -13.0613    0.0000 H         1 <0>        0.00000
     73 H32        14.0824  -13.4738    0.0000 H         1 <0>        0.00000
     74 H33        14.0824  -13.4738    0.0000 H         1 <0>        0.00000
     75 H34        14.7969  -13.0613    0.0000 H         1 <0>        0.00000
     76 H35        14.7969  -13.0613    0.0000 H         1 <0>        0.00000
     77 H36        15.5113  -13.4738    0.0000 H         1 <0>        0.00000
     78 H37        15.5113  -13.4738    0.0000 H         1 <0>        0.00000
     79 H38        16.9403  -13.4738    0.0000 H         1 <0>        0.00000
     80 H39        16.9403  -13.4738    0.0000 H         1 <0>        0.00000
     81 H40        17.6547  -13.0613    0.0000 H         1 <0>        0.00000
     82 H41        17.6547  -13.0613    0.0000 H         1 <0>        0.00000
     83 H42        18.3692  -13.4738    0.0000 H         1 <0>        0.00000
     84 H43        18.3692  -13.4738    0.0000 H         1 <0>        0.00000
     85 H44        10.7937   -9.9470    0.0000 H         1 <0>        0.00000
     86 H45         9.7956  -10.1738    0.0000 H         1 <0>        0.00000
     87 H46         9.7956  -10.1738    0.0000 H         1 <0>        0.00000
     88 H47         9.7956  -10.1738    0.0000 H         1 <0>        0.00000
@<TRIPOS>BOND
     1    1    2 ar
     2    2    3 ar
     3    3    4 ar
     4    4    5 ar
     5    1    6 ar
     6    6    7 1
     7    5    6 ar
     8    5    8 1
     9    8    9 1
    10    9   10 1
    11    7   12 1
    12    7   10 1
    13   10   13 1
    14   11   12 1
    15   11   14 1
    16   14   15 1
    17   13   14 1
    18   13   16 1
    19   16   17 1
    20   15   17 1
    21    3   18 1
    22    7   19 1
    23   13   20 1
    24    9   21 1
    25   21   22 1
    26   22   23 1
    27   23   24 1
    28   24   25 1
    29   25   26 1
    30   26   27 1
    31   27   28 1
    32   28   29 1
    33   29   30 1
    34   30   31 2
    35   30   32 1
    36   32   33 1
    37   33   34 1
    38   34   35 1
    39   35   36 1
    40   35   37 1
    41   35   38 1
    42   36   39 1
    43   36   40 1
    44   36   41 1
    45   15   42 1
    46   14   43 1
    47    1   44 1
    48    2   45 1
    49    4   46 1
    50    8   47 1
    51    8   48 1
    52    9   49 1
    53   10   50 1
    54   11   51 1
    55   11   52 1
    56   12   53 1
    57   12   54 1
    58   15   55 1
    59   16   56 1
    60   16   57 1
    61   17   58 1
    62   17   59 1
    63   18   60 1
    64   21   61 1
    65   21   62 1
    66   22   63 1
    67   22   64 1
    68   23   65 1
    69   23   66 1
    70   24   67 1
    71   24   68 1
    72   25   69 1
    73   25   70 1
    74   26   71 1
    75   26   72 1
    76   27   73 1
    77   27   74 1
    78   28   75 1
    79   28   76 1
    80   29   77 1
    81   29   78 1
    82   32   79 1
    83   32   80 1
    84   33   81 1
    85   33   82 1
    86   34   83 1
    87   34   84 1
    88   42   85 1
    89   43   86 1
    90   43   87 1
    91   43   88 1
@<TRIPOS>SUBSTRUCTURE
     1 <0>         1 GROUP 0 A     ****
@<TRIPOS>MOLECULE
CM6
   44    47     1     0     0
SMALL
NO_CHARGES

@<TRIPOS>ATOM
      1 O1         -0.6144    1.8899    0.0000 O.2       1 <0>        0.00000
      2 C1         -0.6144    1.0649    0.0000 C.2       1 <0>        0.00000
      3 N1         -1.3289    0.6524    0.0000 N.am      1 <0>        0.00000
      4 C2         -2.0434    1.0649    0.0000 C.ar      1 <0>        0.00000
      5 C3         -2.7578    0.6524    0.0000 C.ar      1 <0>        0.00000
      6 C4         -3.4723    1.0649    0.0000 C.ar      1 <0>        0.00000
      7 N2         -3.4723    1.8899    0.0000 N.ar      1 <0>        0.00000
      8 C5         -2.7578    2.3024    0.0000 C.ar      1 <0>        0.00000
      9 C6         -2.0434    1.8899    0.0000 C.ar      1 <0>        0.00000
     10 C7          0.1000    0.6524    0.0000 C.3       1 <0>        0.00000
     11 N3          0.8145    1.0649    0.0000 N.pl3     1 <0>        0.00000
     12 S1          1.5290    0.6524    0.0000 S.o2      1 <0>        0.00000
     13 O2          1.1165   -0.0621    0.0000 O.2       1 <0>        0.00000
     14 O3          1.9415    1.3669    0.0000 O.2       1 <0>        0.00000
     15 C8          2.2435    0.2399    0.0000 C.ar      1 <0>        0.00000
     16 C9          2.9579    0.6524    0.0000 C.ar      1 <0>        0.00000
     17 C10         3.6724    0.2399    0.0000 C.ar      1 <0>        0.00000
     18 C11         3.6724   -0.5851    0.0000 C.ar      1 <0>        0.00000
     19 C12         2.9579   -0.9976    0.0000 C.ar      1 <0>        0.00000
     20 N4          2.7864   -1.8046    0.0000 N.ar      1 <0>        0.00000
     21 S2          1.9659   -1.8908    0.0000 S.3       1 <0>        0.00000
     22 N5          1.6304   -1.1372    0.0000 N.ar      1 <0>        0.00000
     23 C13         2.2435   -0.5851    0.0000 C.ar      1 <0>        0.00000
     24 C14         0.1000   -0.1726    0.0000 C.ar      1 <0>        0.00000
     25 C15         0.8145   -0.5851    0.0000 C.ar      1 <0>        0.00000
     26 C16         0.8145   -1.4101    0.0000 C.ar      1 <0>        0.00000
     27 C17         0.1000   -1.8226    0.0000 C.ar      1 <0>        0.00000
     28 C18        -0.6144   -1.4101    0.0000 C.ar      1 <0>        0.00000
     29 C19        -0.6144   -0.5851    0.0000 C.ar      1 <0>        0.00000
     30 H1          0.1000    1.2363    0.0000 H         1 <0>        0.00000
     31 H2         -1.3289    0.6524    0.0000 H         1 <0>        0.00000
     32 H3         -2.7578    0.6524    0.0000 H         1 <0>        0.00000
     33 H4         -3.4723    1.0649    0.0000 H         1 <0>        0.00000
     34 H5         -2.7578    2.3024    0.0000 H         1 <0>        0.00000
     35 H6         -2.0434    1.8899    0.0000 H         1 <0>        0.00000
     36 H7          0.8145    1.0649    0.0000 H         1 <0>        0.00000
     37 H8          2.9579    0.6524    0.0000 H         1 <0>        0.00000
     38 H9          3.6724    0.2399    0.0000 H         1 <0>        0.00000
     39 H10         3.6724   -0.5851    0.0000 H         1 <0>        0.00000
     40 H11         0.8145   -0.5851    0.0000 H         1 <0>        0.00000
     41 H12         0.8145   -1.4101    0.0000 H         1 <0>        0.00000
     42 H13         0.1000   -1.8226    0.0000 H         1 <0>        0.00000
     43 H14        -0.6144   -1.4101    0.0000 H         1 <0>        0.00000
     44 H15        -0.6144   -0.5851    0.0000 H         1 <0>        0.00000
@<TRIPOS>BOND
     1    1    2 2
     2    2    3 am
     3    2   10 1
     4    3    4 1
     5    4    5 ar
     6    4    9 ar
     7    5    6 ar
     8    6    7 ar
     9    7    8 ar
    10    8    9 ar
    11   10   11 1
    12   10   24 1
    13   10   30 1
    14   11   12 1
    15   12   13 2
    16   12   14 2
    17   12   15 1
    18   15   16 ar
    19   15   23 ar
    20   16   17 ar
    21   17   18 ar
    22   18   19 ar
    23   19   20 2
    24   19   23 ar
    25   20   21 1
    26   21   22 1
    27   22   23 2
    28   24   25 ar
    29   24   29 ar
    30   25   26 ar
    31   26   27 ar
    32   27   28 ar
    33   28   29 ar
    34    3   31 1
    35    5   32 1
    36    6   33 1
    37    8   34 1
    38    9   35 1
    39   11   36 1
    40   16   37 1
    41   17   38 1
    42   18   39 1
    43   25   40 1
    44   26   41 1
    45   27   42 1
    46   28   43 1
    47   29   44 1
@<TRIPOS>SUBSTRUCTURE
     1 <0>         1 GROUP 0 A     ****
@<TRIPOS>MOLECULE
*****
   12    12     1     0     0
SMALL
NO_CHARGES

@<TRIPOS>ATOM
      1 S1          0.7145    2.0625    0.0000 S.3       1 <0>        0.00000
      2 C1          0.7145    1.2375    0.0000 C.ar      1 <0>        0.00000
      3 C2          1.4289    0.8250    0.0000 C.ar      1 <0>        0.00000
      4 C3          1.4289    0.0000    0.0000 C.ar      1 <0>        0.00000
      5 C4          0.7145   -0.4125    0.0000 C.ar      1 <0>        0.00000
      6 C5          0.0000    0.0000    0.0000 C.ar      1 <0>        0.00000
      7 N1          0.0000    0.8250    0.0000 N.ar      1 <0>        0.00000
      8 H1          0.7145    2.0625    0.0000 H         1 <0>        0.00000
      9 H2          1.4289    0.8250    0.0000 H         1 <0>        0.00000
     10 H3          1.4289    0.0000    0.0000 H         1 <0>        0.00000
     11 H4          0.7145   -0.4125    0.0000 H         1 <0>        0.00000
     12 H5          0.0000    0.0000    0.0000 H         1 <0>        0.00000
@<TRIPOS>BOND
     1    1    2 1
     2    2    3 ar
     3    3    4 ar
     4    4    5 ar
     5    5    6 ar
     6    6    7 ar
     7    2    7 ar
     8    1    8 1
     9    3    9 1
    10    4   10 1
    11    5   11 1
    12    6   12 1
@<TRIPOS>SUBSTRUCTURE
     1 <0>         1 GROUP 0 A     ****
@<TRIPOS>MOLECULE
952
   48    50     1     0     0
SMALL
NO_CHARGES

@<TRIPOS>ATOM
      1 S1          3.0791   -0.5003    0.0000 S.o2      1 <0>        0.00000
      2 O1          3.4916    0.2142    0.0000 O.2       1 <0>        0.00000
      3 O2          2.6665   -1.2148    0.0000 O.2       1 <0>        0.00000
      4 N1          8.2010    1.6912    0.0000 N.3       1 <0>        0.00000
      5 N2          7.4321   -1.9892    0.0000 N.pl3     1 <0>        0.00000
      6 N3          2.3645   -0.0878    0.0000 N.pl3     1 <0>        0.00000
      7 C1          7.6884    0.1228    0.0000 C.3       1 <0>        0.00000
      8 C2          8.4957    0.2930    0.0000 C.3       1 <0>        0.00000
      9 C3          7.1374    0.7369    0.0000 C.3       1 <0>        0.00000
     10 C4          8.7520    1.0771    0.0000 C.3       1 <0>        0.00000
     11 C5          7.3937    1.5211    0.0000 C.3       1 <0>        0.00000
     12 C6          7.4321   -0.6613    0.0000 C.ar      1 <0>        0.00000
     13 C7          6.6515   -0.9128    0.0000 C.ar      1 <0>        0.00000
     14 C8          7.9136   -1.3253    0.0000 C.ar      1 <0>        0.00000
     15 C9          6.6515   -1.7378    0.0000 C.ar      1 <0>        0.00000
     16 C10         8.4573    2.4754    0.0000 C.3       1 <0>        0.00000
     17 C11         5.9370   -0.5003    0.0000 C.ar      1 <0>        0.00000
     18 C12         5.2224   -0.9128    0.0000 C.ar      1 <0>        0.00000
     19 C13         5.9370   -2.1503    0.0000 C.ar      1 <0>        0.00000
     20 C14         4.5080   -0.5003    0.0000 C.3       1 <0>        0.00000
     21 C15         5.2224   -1.7378    0.0000 C.ar      1 <0>        0.00000
     22 C16         3.7935   -0.9128    0.0000 C.3       1 <0>        0.00000
     23 C17         1.6500   -0.5003    0.0000 C.3       1 <0>        0.00000
     24 H1          7.4321   -1.9892    0.0000 H         1 <0>        0.00000
     25 H2          2.3645   -0.0878    0.0000 H         1 <0>        0.00000
     26 H3          7.6884    0.1228    0.0000 H         1 <0>        0.00000
     27 H4          8.4957    0.2930    0.0000 H         1 <0>        0.00000
     28 H5          8.4957    0.2930    0.0000 H         1 <0>        0.00000
     29 H6          7.1374    0.7369    0.0000 H         1 <0>        0.00000
     30 H7          7.1374    0.7369    0.0000 H         1 <0>        0.00000
     31 H8          8.7520    1.0771    0.0000 H         1 <0>        0.00000
     32 H9          8.7520    1.0771    0.0000 H         1 <0>        0.00000
     33 H10         7.3937    1.5211    0.0000 H         1 <0>        0.00000
     34 H11         7.3937    1.5211    0.0000 H         1 <0>        0.00000
     35 H12         7.9136   -1.3253    0.0000 H         1 <0>        0.00000
     36 H13         8.4573    2.4754    0.0000 H         1 <0>        0.00000
     37 H14         8.4573    2.4754    0.0000 H         1 <0>        0.00000
     38 H15         8.4573    2.4754    0.0000 H         1 <0>        0.00000
     39 H16         5.9370   -0.5003    0.0000 H         1 <0>        0.00000
     40 H17         5.9370   -2.1503    0.0000 H         1 <0>        0.00000
     41 H18         4.5080   -0.5003    0.0000 H         1 <0>        0.00000
     42 H19         4.5080   -0.5003    0.0000 H         1 <0>        0.00000
     43 H20         5.2224   -1.7378    0.0000 H         1 <0>        0.00000
     44 H21         3.7935   -0.9128    0.0000 H         1 <0>        0.00000
     45 H22         3.7935   -0.9128    0.0000 H         1 <0>        0.00000
     46 H23         1.6500   -0.5003    0.0000 H         1 <0>        0.00000
     47 H24         1.6500   -0.5003    0.0000 H         1 <0>        0.00000
     48 H25         1.6500   -0.5003    0.0000 H         1 <0>        0.00000
@<TRIPOS>BOND
     1    1    2 2
     2    1    3 2
     3    1    6 1
     4    1   22 1
     5    4   10 1
     6    4   11 1
     7    4   16 1
     8    5   14 1
     9    5   15 1
    10    6   23 1
    11    7    8 1
    12    7    9 1
    13    7   12 1
    14    8   10 1
    15    9   11 1
    16   12   13 1
    17   12   14 2
    18   13   15 ar
    19   13   17 ar
    20   15   19 ar
    21   17   18 ar
    22   18   20 1
    23   18   21 ar
    24   19   21 ar
    25   20   22 1
    26    5   24 1
    27    6   25 1
    28    7   26 1
    29    8   27 1
    30    8   28 1
    31    9   29 1
    32    9   30 1
    33   10   31 1
    34   10   32 1
    35   11   33 1
    36   11   34 1
    37   14   35 1
    38   16   36 1
    39   16   37 1
    40   16   38 1
    41   17   39 1
    42   19   40 1
    43   20   41 1
    44   20   42 1
    45   21   43 1
    46   22   44 1
    47   22   45 1
    48   23   46 1
    49   23   47 1
    50   23   48 1
@<TRIPOS>SUBSTRUCTURE
     1 <0>         1 GROUP 0 A     ****
@<TRIPOS>MOLECULE
*****
   12    11     1     0     0
SMALL
NO_CHARGES

@<TRIPOS>ATOM
      1 C1          2.0625   -0.7145    0.0000 C.3       1 <0>        0.00000
      2 C2          1.2375   -0.7145    0.0000 C.3       1 <0>        0.00000
      3 O1          0.8250   -1.4289    0.0000 O.3       1 <0>        0.00000
      4 C3          0.8250    0.0000    0.0000 C.3       1 <0>        0.00000
      5 Br1         0.0000    0.0000    0.0000 Br        1 <0>        0.00000
      6 H1          2.0625   -0.7145    0.0000 H         1 <0>        0.00000
      7 H2          2.0625   -0.7145    0.0000 H         1 <0>        0.00000
      8 H3          2.0625   -0.7145    0.0000 H         1 <0>        0.00000
      9 H4          1.2375   -0.7145    0.0000 H         1 <0>        0.00000
     10 H5          0.8250   -1.4289    0.0000 H         1 <0>        0.00000
     11 H6          0.8250    0.0000    0.0000 H         1 <0>        0.00000
     12 H7          0.8250    0.0000    0.0000 H         1 <0>        0.00000
@<TRIPOS>BOND
     1    1    2 1
     2    2    3 1
     3    2    4 1
     4    4    5 1
     5    1    6 1
     6    1    7 1
     7    1    8 1
     8    2    9 1
     9    3   10 1
    10    4   11 1
    11    4   12 1
@<TRIPOS>SUBSTRUCTURE
     1 <0>         1 GROUP 0 A     ****
@<TRIPOS>MOLECULE
*****
   31    33     1     0     0
SMALL
NO_CHARGES

@<TRIPOS>ATOM
      1 O1         -0.6955    3.4867    0.0000 O.3       1 <0>        0.00000
      2 C1         -0.1435    2.8736    0.0000 C.3       1 <0>        0.00000
      3 C2         -0.3984    2.0890    0.0000 C.3       1 <0>        0.00000
      4 O2          0.0865    1.4216    0.0000 O.3       1 <0>        0.00000
      5 C3         -0.3984    0.7541    0.0000 C.3       1 <0>        0.00000
      6 C4         -1.1831    1.0091    0.0000 C.3       1 <0>        0.00000
      7 O3         -1.8505    0.5241    0.0000 O.3       1 <0>        0.00000
      8 C5         -1.1831    1.8341    0.0000 C.3       1 <0>        0.00000
      9 O4         -1.8505    2.3190    0.0000 O.3       1 <0>        0.00000
     10 N1         -0.1435   -0.0305    0.0000 N.pl3     1 <0>        0.00000
     11 C6         -0.6284   -0.6979    0.0000 C.ar      1 <0>        0.00000
     12 N2         -0.1435   -1.3654    0.0000 N.ar      1 <0>        0.00000
     13 C7          0.6411   -1.1104    0.0000 C.ar      1 <0>        0.00000
     14 C8          0.6411   -0.2854    0.0000 C.ar      1 <0>        0.00000
     15 N3          1.3556    0.1271    0.0000 N.ar      1 <0>        0.00000
     16 C9          2.0701   -0.2854    0.0000 C.ar      1 <0>        0.00000
     17 N4          2.0701   -1.1104    0.0000 N.pl3     1 <0>        0.00000
     18 C10         1.3556   -1.5229    0.0000 C.ar      1 <0>        0.00000
     19 Se1         1.3556   -2.3479    0.0000 Se        1 <0>        0.00000
     20 H1         -0.6955    3.4867    0.0000 H         1 <0>        0.00000
     21 H2         -0.1435    2.8736    0.0000 H         1 <0>        0.00000
     22 H3         -0.1435    2.8736    0.0000 H         1 <0>        0.00000
     23 H4         -0.3984    2.0890    0.0000 H         1 <0>        0.00000
     24 H5         -0.3984    0.7541    0.0000 H         1 <0>        0.00000
     25 H6         -1.1831    1.0091    0.0000 H         1 <0>        0.00000
     26 H7         -1.8505    0.5241    0.0000 H         1 <0>        0.00000
     27 H8         -1.1831    1.8341    0.0000 H         1 <0>        0.00000
     28 H9         -1.8505    2.3190    0.0000 H         1 <0>        0.00000
     29 H10        -0.6284   -0.6979    0.0000 H         1 <0>        0.00000
     30 H11         2.0701   -0.2854    0.0000 H         1 <0>        0.00000
     31 H12         2.0701   -1.1104    0.0000 H         1 <0>        0.00000
@<TRIPOS>BOND
     1    1    2 1
     2    2    3 1
     3    3    4 1
     4    4    5 1
     5    5    6 1
     6    6    7 1
     7    6    8 1
     8    3    8 1
     9    8    9 1
    10    5   10 1
    11   10   11 1
    12   11   12 2
    13   12   13 1
    14   13   14 2
    15   10   14 1
    16   14   15 1
    17   15   16 2
    18   16   17 1
    19   17   18 1
    20   13   18 1
    21   18   19 2
    22    1   20 1
    23    2   21 1
    24    2   22 1
    25    3   23 1
    26    5   24 1
    27    6   25 1
    28    7   26 1
    29    8   27 1
    30    9   28 1
    31   11   29 1
    32   16   30 1
    33   17   31 1
@<TRIPOS>SUBSTRUCTURE
     1 <0>         1 GROUP 0 A     ****
@<TRIPOS>MOLECULE
*****
   55    58     1     0     0
SMALL
NO_CHARGES

@<TRIPOS>ATOM
      1 C1         -1.4289    7.4250    0.0000 C.ar      1 <0>        0.00000
      2 C2         -2.1434    7.0125    0.0000 C.ar      1 <0>        0.00000
      3 C3         -0.7145    7.0125    0.0000 C.ar      1 <0>        0.00000
      4 C4         -2.1434    6.1875    0.0000 C.ar      1 <0>        0.00000
      5 C5         -1.1270    2.9980    0.0000 C.3       1 <0>        0.00000
      6 C6         -0.3020    2.9980    0.0000 C.3       1 <0>        0.00000
      7 C7          1.4289    5.7750    0.0000 C.ar      1 <0>        0.00000
      8 C8          0.7145    7.0125    0.0000 C.ar      1 <0>        0.00000
      9 C9          2.1434    6.1875    0.0000 C.ar      1 <0>        0.00000
     10 C10         1.4289    7.4250    0.0000 C.ar      1 <0>        0.00000
     11 C11         0.7145    3.7125    0.0000 C.2       1 <0>        0.00000
     12 C12         0.7145    4.5375    0.0000 C.2       1 <0>        0.00000
     13 C13         2.1434    3.7125    0.0000 C.3       1 <0>        0.00000
     14 C14         3.5724    3.7125    0.0000 C.3       1 <0>        0.00000
     15 C15         0.7145    6.1875    0.0000 C.ar      1 <0>        0.00000
     16 C16        -0.7145    3.7125    0.0000 C.3       1 <0>        0.00000
     17 C17         2.1434    7.0125    0.0000 C.ar      1 <0>        0.00000
     18 C18         1.4289    3.3000    0.0000 C.3       1 <0>        0.00000
     19 C19         2.8579    3.3000    0.0000 C.3       1 <0>        0.00000
     20 C20        -0.7145    6.1875    0.0000 C.ar      1 <0>        0.00000
     21 C21         0.0000    4.9500    0.0000 C.ar      1 <0>        0.00000
     22 C22        -1.4289    5.7750    0.0000 C.ar      1 <0>        0.00000
     23 C23         4.2868    3.3000    0.0000 C.2       1 <0>        0.00000
     24 C24         0.0000    5.7750    0.0000 C.ar      1 <0>        0.00000
     25 C25        -0.7145    4.5375    0.0000 C.ar      1 <0>        0.00000
     26 F1          2.8579    7.4250    0.0000 F         1 <0>        0.00000
     27 N1         -1.4289    4.9500    0.0000 N.ar      1 <0>        0.00000
     28 O1          1.4289    2.4750    0.0000 O.3       1 <0>        0.00000
     29 O2          2.8579    2.4750    0.0000 O.3       1 <0>        0.00000
     30 O3          5.0013    3.7125    0.0000 O.2       1 <0>        0.00000
     31 O4          4.2868    2.4750    0.0000 O.3       1 <0>        0.00000
     32 H1         -1.4289    7.4250    0.0000 H         1 <0>        0.00000
     33 H2         -2.1434    7.0125    0.0000 H         1 <0>        0.00000
     34 H3         -0.7145    7.0125    0.0000 H         1 <0>        0.00000
     35 H4         -2.1434    6.1875    0.0000 H         1 <0>        0.00000
     36 H5         -1.1270    2.9980    0.0000 H         1 <0>        0.00000
     37 H6         -1.1270    2.9980    0.0000 H         1 <0>        0.00000
     38 H7         -0.3020    2.9980    0.0000 H         1 <0>        0.00000
     39 H8         -0.3020    2.9980    0.0000 H         1 <0>        0.00000
     40 H9          1.4289    5.7750    0.0000 H         1 <0>        0.00000
     41 H10         0.7145    7.0125    0.0000 H         1 <0>        0.00000
     42 H11         2.1434    6.1875    0.0000 H         1 <0>        0.00000
     43 H12         1.4289    7.4250    0.0000 H         1 <0>        0.00000
     44 H13         0.7145    3.7125    0.0000 H         1 <0>        0.00000
     45 H14         0.7145    4.5375    0.0000 H         1 <0>        0.00000
     46 H15         2.1434    3.7125    0.0000 H         1 <0>        0.00000
     47 H16         2.1434    3.7125    0.0000 H         1 <0>        0.00000
     48 H17         3.5724    3.7125    0.0000 H         1 <0>        0.00000
     49 H18         3.5724    3.7125    0.0000 H         1 <0>        0.00000
     50 H19        -0.7145    3.7125    0.0000 H         1 <0>        0.00000
     51 H20         1.4289    3.3000    0.0000 H         1 <0>        0.00000
     52 H21         2.8579    3.3000    0.0000 H         1 <0>        0.00000
     53 H22         1.4289    2.4750    0.0000 H         1 <0>        0.00000
     54 H23         2.8579    2.4750    0.0000 H         1 <0>        0.00000
     55 H24         4.2868    2.4750    0.0000 H         1 <0>        0.00000
@<TRIPOS>BOND
     1    1    2 ar
     2    1    3 ar
     3    2    4 ar
     4    5    6 1
     5    7    9 ar
     6    8   10 ar
     7   11   12 2
     8    7   15 ar
     9    8   15 ar
    10    5   16 1
    11    6   16 1
    12    9   17 ar
    13   10   17 ar
    14   11   18 1
    15   13   18 1
    16   13   19 1
    17   14   19 1
    18    3   20 ar
    19   12   21 1
    20    4   22 ar
    21   20   22 ar
    22   14   23 1
    23   15   24 1
    24   20   24 ar
    25   21   24 ar
    26   16   25 1
    27   21   25 ar
    28   17   26 1
    29   22   27 ar
    30   25   27 ar
    31   18   28 1
    32   19   29 1
    33   23   30 2
    34   23   31 1
    35    1   32 1
    36    2   33 1
    37    3   34 1
    38    4   35 1
    39    5   36 1
    40    5   37 1
    41    6   38 1
    42    6   39 1
    43    7   40 1
    44    8   41 1
    45    9   42 1
    46   10   43 1
    47   11   44 1
    48   12   45 1
    49   13   46 1
    50   13   47 1
    51   14   48 1
    52   14   49 1
    53   16   50 1
    54   18   51 1
    55   19   52 1
    56   28   53 1
    57   29   54 1
    58   31   55 1
@<TRIPOS>SUBSTRUCTURE
     1 <0>         1 GROUP 0 A     ****
@<TRIPOS>MOLECULE
*****
   11    11     1     0     0
SMALL
NO_CHARGES

@<TRIPOS>ATOM
      1 O1          2.1913    1.6913    0.0000 O.3       1 <0>        0.00000
      2 C1          2.0198    0.8843    0.0000 C.2       1 <0>        0.00000
      3 O2          2.6329    0.3323    0.0000 O.2       1 <0>        0.00000
      4 C2          1.2352    0.6294    0.0000 C.ar      1 <0>        0.00000
      5 N1          0.9803   -0.1553    0.0000 N.ar      1 <0>        0.00000
      6 S1          0.1553   -0.1553    0.0000 S.3       1 <0>        0.00000
      7 N2         -0.0997    0.6294    0.0000 N.ar      1 <0>        0.00000
      8 C3          0.5678    1.1143    0.0000 C.ar      1 <0>        0.00000
      9 O3          0.5678    1.9393    0.0000 O.3       1 <0>        0.00000
     10 H1          2.1913    1.6913    0.0000 H         1 <0>        0.00000
     11 H2          0.5678    1.9393    0.0000 H         1 <0>        0.00000
@<TRIPOS>BOND
     1    1    2 1
     2    2    3 2
     3    2    4 1
     4    4    5 2
     5    5    6 1
     6    6    7 1
     7    7    8 2
     8    4    8 1
     9    8    9 1
    10    1   10 1
    11    9   11 1
@<TRIPOS>SUBSTRUCTURE
     1 <0>         1 GROUP 0 A     ****
@<TRIPOS>MOLECULE
*****
   46    49     1     0     0
SMALL
NO_CHARGES

@<TRIPOS>ATOM
      1 C1         -2.6909    0.0165    0.0000 C.3       1 <0>        0.00000
      2 C2         -1.8659    0.0165    0.0000 C.2       1 <0>        0.00000
      3 O1         -1.4534    0.7310    0.0000 O.2       1 <0>        0.00000
      4 O2         -1.4534   -0.6979    0.0000 O.3       1 <0>        0.00000
      5 C3         -0.6284   -0.6979    0.0000 C.ar      1 <0>        0.00000
      6 C4         -0.1435   -1.3654    0.0000 C.ar      1 <0>        0.00000
      7 C5          0.6411   -1.1104    0.0000 C.ar      1 <0>        0.00000
      8 C6          0.6411   -0.2854    0.0000 C.ar      1 <0>        0.00000
      9 C7          1.3556    0.1271    0.0000 C.3       1 <0>        0.00000
     10 C8          2.0701   -0.2854    0.0000 C.3       1 <0>        0.00000
     11 N1          2.0701   -1.1104    0.0000 N.3       1 <0>        0.00000
     12 C9          1.3556   -1.5229    0.0000 C.3       1 <0>        0.00000
     13 C10         2.7845   -1.5229    0.0000 C.3       1 <0>        0.00000
     14 C11         3.4990   -1.1104    0.0000 C.2       1 <0>        0.00000
     15 O3          4.2135   -1.5229    0.0000 O.2       1 <0>        0.00000
     16 C12         3.4990   -0.2854    0.0000 C.3       1 <0>        0.00000
     17 C13         3.0865    0.4290    0.0000 C.3       1 <0>        0.00000
     18 C14         3.9115    0.4290    0.0000 C.3       1 <0>        0.00000
     19 C15         2.7845   -2.3479    0.0000 C.ar      1 <0>        0.00000
     20 C16         3.4990   -2.7604    0.0000 C.ar      1 <0>        0.00000
     21 C17         3.4990   -3.5854    0.0000 C.ar      1 <0>        0.00000
     22 C18         2.7845   -3.9979    0.0000 C.ar      1 <0>        0.00000
     23 C19         2.0701   -3.5854    0.0000 C.ar      1 <0>        0.00000
     24 C20         2.0701   -2.7604    0.0000 C.ar      1 <0>        0.00000
     25 F1          1.3556   -2.3479    0.0000 F         1 <0>        0.00000
     26 S1         -0.1435   -0.0305    0.0000 S.3       1 <0>        0.00000
     27 H1         -2.6909    0.0165    0.0000 H         1 <0>        0.00000
     28 H2         -2.6909    0.0165    0.0000 H         1 <0>        0.00000
     29 H3         -2.6909    0.0165    0.0000 H         1 <0>        0.00000
     30 H4         -0.1435   -1.3654    0.0000 H         1 <0>        0.00000
     31 H5          1.3556    0.1271    0.0000 H         1 <0>        0.00000
     32 H6          1.3556    0.1271    0.0000 H         1 <0>        0.00000
     33 H7          2.0701   -0.2854    0.0000 H         1 <0>        0.00000
     34 H8          2.0701   -0.2854    0.0000 H         1 <0>        0.00000
     35 H9          1.3556   -1.5229    0.0000 H         1 <0>        0.00000
     36 H10         1.3556   -1.5229    0.0000 H         1 <0>        0.00000
     37 H11         2.7845   -1.5229    0.0000 H         1 <0>        0.00000
     38 H12         3.4990   -0.2854    0.0000 H         1 <0>        0.00000
     39 H13         3.0865    0.4290    0.0000 H         1 <0>        0.00000
     40 H14         3.0865    0.4290    0.0000 H         1 <0>        0.00000
     41 H15         3.9115    0.4290    0.0000 H         1 <0>        0.00000
     42 H16         3.9115    0.4290    0.0000 H         1 <0>        0.00000
     43 H17         3.4990   -2.7604    0.0000 H         1 <0>        0.00000
     44 H18         3.4990   -3.5854    0.0000 H         1 <0>        0.00000
     45 H19         2.7845   -3.9979    0.0000 H         1 <0>        0.00000
     46 H20         2.0701   -3.5854    0.0000 H         1 <0>        0.00000
@<TRIPOS>BOND
     1    1    2 1
     2    2    3 2
     3    2    4 1
     4    4    5 1
     5    5    6 2
     6    6    7 1
     7    7    8 2
     8    8    9 1
     9    9   10 1
    10   10   11 1
    11   11   12 1
    12    7   12 1
    13   11   13 1
    14   13   14 1
    15   14   15 2
    16   14   16 1
    17   16   17 1
    18   17   18 1
    19   16   18 1
    20   13   19 1
    21   19   20 ar
    22   20   21 ar
    23   21   22 ar
    24   22   23 ar
    25   23   24 ar
    26   19   24 ar
    27   24   25 1
    28    8   26 1
    29    5   26 1
    30    1   27 1
    31    1   28 1
    32    1   29 1
    33    6   30 1
    34    9   31 1
    35    9   32 1
    36   10   33 1
    37   10   34 1
    38   12   35 1
    39   12   36 1
    40   13   37 1
    41   16   38 1
    42   17   39 1
    43   17   40 1
    44   18   41 1
    45   18   42 1
    46   20   43 1
    47   21   44 1
    48   22   45 1
    49   23   46 1
@<TRIPOS>SUBSTRUCTURE
     1 <0>         1 GROUP 0 A     ****
@<TRIPOS>MOLECULE
*****
   18    18     1     0     0
SMALL
NO_CHARGES

@<TRIPOS>ATOM
      1 O1          2.1434    2.0625    0.0000 O.3       1 <0>        0.00000
      2 C1          2.1434    1.2375    0.0000 C.2       1 <0>        0.00000
      3 O2          2.8579    0.8250    0.0000 O.2       1 <0>        0.00000
      4 C2          1.4289    0.8250    0.0000 C.ar      1 <0>        0.00000
      5 C3          1.4289    0.0000    0.0000 C.ar      1 <0>        0.00000
      6 C4          0.7145   -0.4125    0.0000 C.ar      1 <0>        0.00000
      7 S1          0.7145   -1.2375    0.0000 S.3       1 <0>        0.00000
      8 C5          0.0000    0.0000    0.0000 C.ar      1 <0>        0.00000
      9 C6          0.0000    0.8250    0.0000 C.ar      1 <0>        0.00000
     10 C7          0.7145    1.2375    0.0000 C.ar      1 <0>        0.00000
     11 N1          0.7145    2.0625    0.0000 N.pl3     1 <0>        0.00000
     12 O3          0.0000    2.4750    0.0000 O.3       1 <0>        0.00000
     13 O4          1.4289    2.4750    0.0000 O.2       1 <0>        0.00000
     14 H1          2.1434    2.0625    0.0000 H         1 <0>        0.00000
     15 H2          1.4289    0.0000    0.0000 H         1 <0>        0.00000
     16 H3          0.7145   -1.2375    0.0000 H         1 <0>        0.00000
     17 H4          0.0000    0.0000    0.0000 H         1 <0>        0.00000
     18 H5          0.0000    0.8250    0.0000 H         1 <0>        0.00000
@<TRIPOS>BOND
     1    1    2 1
     2    2    3 2
     3    2    4 1
     4    4    5 ar
     5    5    6 ar
     6    6    7 1
     7    6    8 ar
     8    8    9 ar
     9    9   10 ar
    10    4   10 ar
    11   10   11 1
    12   11   12 1
    13   11   13 2
    14    1   14 1
    15    5   15 1
    16    7   16 1
    17    8   17 1
    18    9   18 1
@<TRIPOS>SUBSTRUCTURE
     1 <0>         1 GROUP 0 A     ****
@<TRIPOS>MOLECULE
AL3
   34    36     1     0     0
SMALL
NO_CHARGES

@<TRIPOS>ATOM
      1 C1         -2.3135   -0.0422    0.0000 C.ar      1 <0>        0.00000
      2 O1         -0.3295   -1.6922    0.0000 O.3       1 <0>        0.00000
      3 C2          0.3850   -0.4547    0.0000 C.3       1 <0>        0.00000
      4 C3         -0.3295   -0.8672    0.0000 C.3       1 <0>        0.00000
      5 C4          1.0995    0.7828    0.0000 C.3       1 <0>        0.00000
      6 C5          1.8139    0.3703    0.0000 C.ar      1 <0>        0.00000
      7 C6          2.5676    0.7059    0.0000 C.ar      1 <0>        0.00000
      8 C7          3.1196    0.0928    0.0000 C.ar      1 <0>        0.00000
      9 C8          2.7071   -0.6217    0.0000 C.ar      1 <0>        0.00000
     10 O2         -3.9635   -0.0422    0.0000 O.2       1 <0>        0.00000
     11 O3         -3.1385    0.7828    0.0000 O.2       1 <0>        0.00000
     12 N1         -3.1385   -0.8672    0.0000 N.pl3     1 <0>        0.00000
     13 S1         -3.1385   -0.0422    0.0000 S.o2      1 <0>        0.00000
     14 C9         -1.8286   -0.7096    0.0000 C.ar      1 <0>        0.00000
     15 C10        -1.0440   -0.4547    0.0000 C.ar      1 <0>        0.00000
     16 C11        -1.0440    0.3703    0.0000 C.ar      1 <0>        0.00000
     17 S2         -1.8286    0.6253    0.0000 S.3       1 <0>        0.00000
     18 S3         -0.3295    0.7828    0.0000 S.o2      1 <0>        0.00000
     19 O4         -0.8598    1.4148    0.0000 O.2       1 <0>        0.00000
     20 O5          0.2008    1.4148    0.0000 O.2       1 <0>        0.00000
     21 N2          0.3850    0.3703    0.0000 N.pl3     1 <0>        0.00000
     22 S4          1.9002   -0.4501    0.0000 S.3       1 <0>        0.00000
     23 H1          0.1762   -1.1591    0.0000 H         1 <0>        0.00000
     24 H2         -0.3295   -1.6922    0.0000 H         1 <0>        0.00000
     25 H3          0.3850   -0.4547    0.0000 H         1 <0>        0.00000
     26 H4          0.3850   -0.4547    0.0000 H         1 <0>        0.00000
     27 H5          1.0995    0.7828    0.0000 H         1 <0>        0.00000
     28 H6          1.0995    0.7828    0.0000 H         1 <0>        0.00000
     29 H7          2.5676    0.7059    0.0000 H         1 <0>        0.00000
     30 H8          3.1196    0.0928    0.0000 H         1 <0>        0.00000
     31 H9          2.7071   -0.6217    0.0000 H         1 <0>        0.00000
     32 H10        -3.1385   -0.8672    0.0000 H         1 <0>        0.00000
     33 H11        -3.1385   -0.8672    0.0000 H         1 <0>        0.00000
     34 H12        -1.8286   -0.7096    0.0000 H         1 <0>        0.00000
@<TRIPOS>BOND
     1    1   13 1
     2    1   14 2
     3    1   17 1
     4    2    4 1
     5    3    4 1
     6    3   21 1
     7    4   15 1
     8    4   23 1
     9    5    6 1
    10    5   21 1
    11    6    7 2
    12    6   22 1
    13    7    8 1
    14    8    9 2
    15    9   22 1
    16   10   13 2
    17   11   13 2
    18   12   13 1
    19   14   15 1
    20   15   16 2
    21   16   17 1
    22   16   18 1
    23   18   19 2
    24   18   20 2
    25   18   21 1
    26    2   24 1
    27    3   25 1
    28    3   26 1
    29    5   27 1
    30    5   28 1
    31    7   29 1
    32    8   30 1
    33    9   31 1
    34   12   32 1
    35   12   33 1
    36   14   34 1
@<TRIPOS>SUBSTRUCTURE
     1 <0>         1 GROUP 0 A     ****
@<TRIPOS>MOLECULE
ZFB
   42    43     1     0     0
SMALL
NO_CHARGES

@<TRIPOS>ATOM
      1 N1         -0.3660    0.2381    0.0000 N.am      1 <0>        0.00000
      2 C1         -0.6360   -0.5415    0.0000 C.2       1 <0>        0.00000
      3 O1         -0.0959   -1.1651    0.0000 O.2       1 <0>        0.00000
      4 O2         -1.4461   -0.6974    0.0000 O.3       1 <0>        0.00000
      5 C2         -1.7162   -1.4769    0.0000 C.3       1 <0>        0.00000
      6 C3         -2.5263   -1.6328    0.0000 C.ar      1 <0>        0.00000
      7 C4         -2.7964   -2.4124    0.0000 C.ar      1 <0>        0.00000
      8 C5         -3.6065   -2.5683    0.0000 C.ar      1 <0>        0.00000
      9 C6         -4.1466   -1.9446    0.0000 C.ar      1 <0>        0.00000
     10 C7         -3.8766   -1.1651    0.0000 C.ar      1 <0>        0.00000
     11 C8         -3.0664   -1.0092    0.0000 C.ar      1 <0>        0.00000
     12 C9          0.4442    0.3940    0.0000 C.3       1 <0>        0.00000
     13 C10         0.9843   -0.2296    0.0000 C.2       1 <0>        0.00000
     14 O3          0.7142   -1.0092    0.0000 O.2       1 <0>        0.00000
     15 C11         1.7944   -0.0737    0.0000 C.3       1 <0>        0.00000
     16 N2          2.3345   -0.6974    0.0000 N.1       1 <0>        0.00000
     17 N3          2.8746   -1.3210    0.0000 N.1       1 <0>        0.00000
     18 C12         0.7142    1.1736    0.0000 C.3       1 <0>        0.00000
     19 C13         1.5243    1.3295    0.0000 C.ar      1 <0>        0.00000
     20 C14         1.7944    2.1090    0.0000 C.ar      1 <0>        0.00000
     21 C15         2.6045    2.2649    0.0000 C.ar      1 <0>        0.00000
     22 C16         3.1446    1.6413    0.0000 C.ar      1 <0>        0.00000
     23 C17         2.8746    0.8617    0.0000 C.ar      1 <0>        0.00000
     24 C18         2.0644    0.7058    0.0000 C.ar      1 <0>        0.00000
     25 H1          0.2530   -0.1578    0.0000 H         1 <0>        0.00000
     26 H2         -0.3660    0.2381    0.0000 H         1 <0>        0.00000
     27 H3         -1.7162   -1.4769    0.0000 H         1 <0>        0.00000
     28 H4         -1.7162   -1.4769    0.0000 H         1 <0>        0.00000
     29 H5         -2.7964   -2.4124    0.0000 H         1 <0>        0.00000
     30 H6         -3.6065   -2.5683    0.0000 H         1 <0>        0.00000
     31 H7         -4.1466   -1.9446    0.0000 H         1 <0>        0.00000
     32 H8         -3.8766   -1.1651    0.0000 H         1 <0>        0.00000
     33 H9         -3.0664   -1.0092    0.0000 H         1 <0>        0.00000
     34 H10         1.7944   -0.0737    0.0000 H         1 <0>        0.00000
     35 H11         1.7944   -0.0737    0.0000 H         1 <0>        0.00000
     36 H12         0.7142    1.1736    0.0000 H         1 <0>        0.00000
     37 H13         0.7142    1.1736    0.0000 H         1 <0>        0.00000
     38 H14         1.7944    2.1090    0.0000 H         1 <0>        0.00000
     39 H15         2.6045    2.2649    0.0000 H         1 <0>        0.00000
     40 H16         3.1446    1.6413    0.0000 H         1 <0>        0.00000
     41 H17         2.8746    0.8617    0.0000 H         1 <0>        0.00000
     42 H18         2.0644    0.7058    0.0000 H         1 <0>        0.00000
@<TRIPOS>BOND
     1    1    2 am
     2    1   12 1
     3    2    3 2
     4    2    4 1
     5    4    5 1
     6    5    6 1
     7    6    7 ar
     8    6   11 ar
     9    7    8 ar
    10    8    9 ar
    11    9   10 ar
    12   10   11 ar
    13   12   13 1
    14   12   18 1
    15   12   25 1
    16   13   14 2
    17   13   15 1
    18   15   16 1
    19   16   17 3
    20   18   19 1
    21   19   20 ar
    22   19   24 ar
    23   20   21 ar
    24   21   22 ar
    25   22   23 ar
    26   23   24 ar
    27    1   26 1
    28    5   27 1
    29    5   28 1
    30    7   29 1
    31    8   30 1
    32    9   31 1
    33   10   32 1
    34   11   33 1
    35   15   34 1
    36   15   35 1
    37   18   36 1
    38   18   37 1
    39   20   38 1
    40   21   39 1
    41   22   40 1
    42   23   41 1
    43   24   42 1
@<TRIPOS>SUBSTRUCTURE
     1 <0>         1 GROUP 0 A     ****
@<TRIPOS>MOLECULE
*****
   18    18     1     0     0
SMALL
NO_CHARGES

@<TRIPOS>ATOM
      1 C1         -0.7145   -0.4125    0.0000 C.3       1 <0>        0.00000
      2 C2          0.0000   -0.8250    0.0000 C.3       1 <0>        0.00000
      3 C3          0.7145   -0.4125    0.0000 C.3       1 <0>        0.00000
      4 C4         -0.7145    0.4125    0.0000 C.3       1 <0>        0.00000
      5 C5          0.7145    0.4125    0.0000 C.3       1 <0>        0.00000
      6 C6          0.0000    0.8250    0.0000 C.3       1 <0>        0.00000
      7 Cl1         1.4289   -0.8250    0.0000 Cl        1 <0>        0.00000
      8 Cl2         0.0000    1.6500    0.0000 Cl        1 <0>        0.00000
      9 Cl3        -1.4289   -0.8250    0.0000 Cl        1 <0>        0.00000
     10 Cl4         0.0000   -1.6500    0.0000 Cl        1 <0>        0.00000
     11 Cl5        -1.4289    0.8250    0.0000 Cl        1 <0>        0.00000
     12 Cl6         1.4289    0.8250    0.0000 Cl        1 <0>        0.00000
     13 H1         -0.7145   -0.4125    0.0000 H         1 <0>        0.00000
     14 H2          0.0000   -0.8250    0.0000 H         1 <0>        0.00000
     15 H3          0.7145   -0.4125    0.0000 H         1 <0>        0.00000
     16 H4         -0.7145    0.4125    0.0000 H         1 <0>        0.00000
     17 H5          0.7145    0.4125    0.0000 H         1 <0>        0.00000
     18 H6          0.0000    0.8250    0.0000 H         1 <0>        0.00000
@<TRIPOS>BOND
     1    1    2 1
     2    2    3 1
     3    1    4 1
     4    3    5 1
     5    4    6 1
     6    5    6 1
     7    3    7 1
     8    6    8 1
     9    1    9 1
    10    2   10 1
    11    4   11 1
    12    5   12 1
    13    1   13 1
    14    2   14 1
    15    3   15 1
    16    4   16 1
    17    5   17 1
    18    6   18 1
@<TRIPOS>SUBSTRUCTURE
     1 <0>         1 GROUP 0 A     ****
@<TRIPOS>MOLECULE
*****
   67    70     1     0     0
SMALL
NO_CHARGES

@<TRIPOS>ATOM
      1 C1         20.0293  -25.3368    0.0000 C.3       1 <0>        0.00000
      2 C2         20.0293  -26.1618    0.0000 C.3       1 <0>        0.00000
      3 C3         20.7718  -26.5743    0.0000 C.3       1 <0>        0.00000
      4 C4         21.4731  -26.1618    0.0000 C.3       1 <0>        0.00000
      5 C5         21.4731  -25.3368    0.0000 C.3       1 <0>        0.00000
      6 C6         20.7718  -24.9243    0.0000 C.3       1 <0>        0.00000
      7 C7         20.7718  -24.0993    0.0000 C.2       1 <0>        0.00000
      8 O1         20.0293  -23.6868    0.0000 O.2       1 <0>        0.00000
      9 N1         21.4731  -23.6868    0.0000 N.am      1 <0>        0.00000
     10 C8         22.1743  -24.0993    0.0000 C.3       1 <0>        0.00000
     11 C9         21.4731  -22.8618    0.0000 C.3       1 <0>        0.00000
     12 N2         20.7718  -27.4406    0.0000 N.am      1 <0>        0.00000
     13 C10        21.4731  -27.8118    0.0000 C.2       1 <0>        0.00000
     14 C11        22.1743  -27.4406    0.0000 C.2       1 <0>        0.00000
     15 O2         21.4731  -28.6781    0.0000 O.2       1 <0>        0.00000
     16 N3         22.8756  -27.8118    0.0000 N.am      1 <0>        0.00000
     17 O3         22.1743  -26.5743    0.0000 O.2       1 <0>        0.00000
     18 C12        23.5768  -27.4406    0.0000 C.ar      1 <0>        0.00000
     19 N4         24.2781  -27.8118    0.0000 N.ar      1 <0>        0.00000
     20 C13        24.9793  -27.3993    0.0000 C.ar      1 <0>        0.00000
     21 C14        24.9793  -26.5743    0.0000 C.ar      1 <0>        0.00000
     22 C15        24.2781  -26.1618    0.0000 C.ar      1 <0>        0.00000
     23 C16        23.5768  -26.6156    0.0000 C.ar      1 <0>        0.00000
     24 Cl1        25.7218  -26.1618    0.0000 Cl        1 <0>        0.00000
     25 N5         19.3281  -26.5743    0.0000 N.am      1 <0>        0.00000
     26 C17        18.6268  -26.2031    0.0000 C.2       1 <0>        0.00000
     27 C18        17.9256  -26.5743    0.0000 C.ar      1 <0>        0.00000
     28 O4         18.6268  -25.3368    0.0000 O.2       1 <0>        0.00000
     29 N6         17.1831  -26.2443    0.0000 N.ar      1 <0>        0.00000
     30 C19        16.6056  -26.8631    0.0000 C.ar      1 <0>        0.00000
     31 C20        17.0181  -27.5643    0.0000 C.ar      1 <0>        0.00000
     32 S1         17.8431  -27.3993    0.0000 S.3       1 <0>        0.00000
     33 C21        15.7806  -26.8631    0.0000 C.3       1 <0>        0.00000
     34 C22        15.3681  -27.5643    0.0000 C.3       1 <0>        0.00000
     35 N7         15.7806  -28.2656    0.0000 N.3       1 <0>        0.00000
     36 C23        16.6056  -28.2656    0.0000 C.3       1 <0>        0.00000
     37 C24        15.3681  -29.0081    0.0000 C.3       1 <0>        0.00000
     38 H1         20.0293  -25.3368    0.0000 H         1 <0>        0.00000
     39 H2         20.0293  -25.3368    0.0000 H         1 <0>        0.00000
     40 H3         20.0293  -26.1618    0.0000 H         1 <0>        0.00000
     41 H4         20.7718  -26.5743    0.0000 H         1 <0>        0.00000
     42 H5         21.4731  -26.1618    0.0000 H         1 <0>        0.00000
     43 H6         21.4731  -26.1618    0.0000 H         1 <0>        0.00000
     44 H7         21.4731  -25.3368    0.0000 H         1 <0>        0.00000
     45 H8         21.4731  -25.3368    0.0000 H         1 <0>        0.00000
     46 H9         20.7718  -24.9243    0.0000 H         1 <0>        0.00000
     47 H10        22.1743  -24.0993    0.0000 H         1 <0>        0.00000
     48 H11        22.1743  -24.0993    0.0000 H         1 <0>        0.00000
     49 H12        22.1743  -24.0993    0.0000 H         1 <0>        0.00000
     50 H13        21.4731  -22.8618    0.0000 H         1 <0>        0.00000
     51 H14        21.4731  -22.8618    0.0000 H         1 <0>        0.00000
     52 H15        21.4731  -22.8618    0.0000 H         1 <0>        0.00000
     53 H16        20.7718  -27.4406    0.0000 H         1 <0>        0.00000
     54 H17        22.8756  -27.8118    0.0000 H         1 <0>        0.00000
     55 H18        24.9793  -27.3993    0.0000 H         1 <0>        0.00000
     56 H19        24.2781  -26.1618    0.0000 H         1 <0>        0.00000
     57 H20        23.5768  -26.6156    0.0000 H         1 <0>        0.00000
     58 H21        19.3281  -26.5743    0.0000 H         1 <0>        0.00000
     59 H22        15.7806  -26.8631    0.0000 H         1 <0>        0.00000
     60 H23        15.7806  -26.8631    0.0000 H         1 <0>        0.00000
     61 H24        15.3681  -27.5643    0.0000 H         1 <0>        0.00000
     62 H25        15.3681  -27.5643    0.0000 H         1 <0>        0.00000
     63 H26        16.6056  -28.2656    0.0000 H         1 <0>        0.00000
     64 H27        16.6056  -28.2656    0.0000 H         1 <0>        0.00000
     65 H28        15.3681  -29.0081    0.0000 H         1 <0>        0.00000
     66 H29        15.3681  -29.0081    0.0000 H         1 <0>        0.00000
     67 H30        15.3681  -29.0081    0.0000 H         1 <0>        0.00000
@<TRIPOS>BOND
     1    1    2 1
     2    2    3 1
     3    3    4 1
     4    4    5 1
     5    5    6 1
     6    1    6 1
     7    6    7 1
     8    7    8 2
     9    7    9 am
    10    9   10 1
    11    9   11 1
    12    3   12 1
    13   12   13 am
    14   13   14 1
    15   13   15 2
    16   14   16 am
    17   14   17 2
    18   16   18 1
    19   18   19 ar
    20   19   20 ar
    21   20   21 ar
    22   21   22 ar
    23   22   23 ar
    24   18   23 ar
    25   21   24 1
    26    2   25 1
    27   25   26 am
    28   26   27 1
    29   26   28 2
    30   27   29 2
    31   29   30 1
    32   30   31 2
    33   31   32 1
    34   27   32 1
    35   30   33 1
    36   33   34 1
    37   34   35 1
    38   35   36 1
    39   31   36 1
    40   35   37 1
    41    1   38 1
    42    1   39 1
    43    2   40 1
    44    3   41 1
    45    4   42 1
    46    4   43 1
    47    5   44 1
    48    5   45 1
    49    6   46 1
    50   10   47 1
    51   10   48 1
    52   10   49 1
    53   11   50 1
    54   11   51 1
    55   11   52 1
    56   12   53 1
    57   16   54 1
    58   20   55 1
    59   22   56 1
    60   23   57 1
    61   25   58 1
    62   33   59 1
    63   33   60 1
    64   34   61 1
    65   34   62 1
    66   36   63 1
    67   36   64 1
    68   37   65 1
    69   37   66 1
    70   37   67 1
@<TRIPOS>SUBSTRUCTURE
     1 <0>         1 GROUP 0 A     ****
@<TRIPOS>MOLECULE
*****
   46    49     1     0     0
SMALL
NO_CHARGES

@<TRIPOS>ATOM
      1 O1          7.7254    1.5548    0.0000 O.3       1 <0>        0.00000
      2 O2          2.3626   -1.9994    0.0000 O.3       1 <0>        0.00000
      3 C1          6.8116    0.5185    0.0000 C.3       1 <0>        0.00000
      4 C2          6.8116   -0.3064    0.0000 C.3       1 <0>        0.00000
      5 C3          6.0971   -0.7188    0.0000 C.3       1 <0>        0.00000
      6 C4          7.5921    0.7699    0.0000 C.3       1 <0>        0.00000
      7 C5          6.0971    0.9310    0.0000 C.3       1 <0>        0.00000
      8 C6          7.5921   -0.5577    0.0000 C.3       1 <0>        0.00000
      9 C7          5.3827    0.5185    0.0000 C.3       1 <0>        0.00000
     10 C8          8.0734    0.1061    0.0000 C.3       1 <0>        0.00000
     11 C9          6.1102   -1.5781    0.0000 C.3       1 <0>        0.00000
     12 C10         6.8116    1.3434    0.0000 C.3       1 <0>        0.00000
     13 C11         4.6321   -0.7245    0.0000 C.ar      1 <0>        0.00000
     14 C12         5.3696   -2.0134    0.0000 C.3       1 <0>        0.00000
     15 C13         4.6255   -1.5838    0.0000 C.ar      1 <0>        0.00000
     16 C14         8.2602    0.9263    0.0000 C.1       1 <0>        0.00000
     17 C15         3.8674   -0.2592    0.0000 C.ar      1 <0>        0.00000
     18 C16         3.8538   -2.0372    0.0000 C.ar      1 <0>        0.00000
     19 C17         3.0855   -0.6947    0.0000 C.ar      1 <0>        0.00000
     20 C18         3.0785   -1.5898    0.0000 C.ar      1 <0>        0.00000
     21 C19         9.0774    1.0528    0.0000 C.1       1 <0>        0.00000
     22 H1          6.0759    0.0864    0.0000 H         1 <0>        0.00000
     23 C20         5.3827   -0.3064    0.0000 C.3       1 <0>        0.00000
     24 H2          5.3762   -1.1312    0.0000 H         1 <0>        0.00000
     25 H3          6.8988   -1.1266    0.0000 H         1 <0>        0.00000
     26 H4          7.7254    1.5548    0.0000 H         1 <0>        0.00000
     27 H5          2.3626   -1.9994    0.0000 H         1 <0>        0.00000
     28 H6          6.0971    0.9310    0.0000 H         1 <0>        0.00000
     29 H7          6.0971    0.9310    0.0000 H         1 <0>        0.00000
     30 H8          7.5921   -0.5577    0.0000 H         1 <0>        0.00000
     31 H9          7.5921   -0.5577    0.0000 H         1 <0>        0.00000
     32 H10         5.3827    0.5185    0.0000 H         1 <0>        0.00000
     33 H11         5.3827    0.5185    0.0000 H         1 <0>        0.00000
     34 H12         8.0734    0.1061    0.0000 H         1 <0>        0.00000
     35 H13         8.0734    0.1061    0.0000 H         1 <0>        0.00000
     36 H14         6.1102   -1.5781    0.0000 H         1 <0>        0.00000
     37 H15         6.1102   -1.5781    0.0000 H         1 <0>        0.00000
     38 H16         6.8116    1.3434    0.0000 H         1 <0>        0.00000
     39 H17         6.8116    1.3434    0.0000 H         1 <0>        0.00000
     40 H18         6.8116    1.3434    0.0000 H         1 <0>        0.00000
     41 H19         5.3696   -2.0134    0.0000 H         1 <0>        0.00000
     42 H20         5.3696   -2.0134    0.0000 H         1 <0>        0.00000
     43 H21         3.8674   -0.2592    0.0000 H         1 <0>        0.00000
     44 H22         3.8538   -2.0372    0.0000 H         1 <0>        0.00000
     45 H23         3.0855   -0.6947    0.0000 H         1 <0>        0.00000
     46 H24         9.0774    1.0528    0.0000 H         1 <0>        0.00000
@<TRIPOS>BOND
     1    1    6 1
     2    2   20 1
     3    3    4 1
     4    3    6 1
     5    3    7 1
     6    3   12 1
     7    4    5 1
     8    4    8 1
     9    5   11 1
    10    5   22 1
    11    6   10 1
    12    6   16 1
    13    7    9 1
    14    8   10 1
    15   11   14 1
    16   13   15 ar
    17   13   17 ar
    18   14   15 1
    19   15   18 ar
    20   16   21 3
    21   17   19 ar
    22   18   20 ar
    23   19   20 ar
    24    5   23 1
    25    9   23 1
    26   13   23 1
    27   23   24 1
    28    4   25 1
    29    1   26 1
    30    2   27 1
    31    7   28 1
    32    7   29 1
    33    8   30 1
    34    8   31 1
    35    9   32 1
    36    9   33 1
    37   10   34 1
    38   10   35 1
    39   11   36 1
    40   11   37 1
    41   12   38 1
    42   12   39 1
    43   12   40 1
    44   14   41 1
    45   14   42 1
    46   17   43 1
    47   18   44 1
    48   19   45 1
    49   21   46 1
@<TRIPOS>SUBSTRUCTURE
     1 <0>         1 GROUP 0 A     ****
@<TRIPOS>MOLECULE
*****
   32    32     1     0     0
SMALL
NO_CHARGES

@<TRIPOS>ATOM
      1 C1          2.8579   -0.8250    0.0000 C.3       1 <0>        0.00000
      2 N1          2.1434   -0.4125    0.0000 N.4       1 <0>        0.00000
      3 C2          2.5559    0.3020    0.0000 C.3       1 <0>        0.00000
      4 C3          1.7309   -1.1270    0.0000 C.3       1 <0>        0.00000
      5 C4          1.4289    0.0000    0.0000 C.ar      1 <0>        0.00000
      6 C5          0.7145   -0.4125    0.0000 C.ar      1 <0>        0.00000
      7 C6          0.0000    0.0000    0.0000 C.ar      1 <0>        0.00000
      8 C7          0.0000    0.8250    0.0000 C.ar      1 <0>        0.00000
      9 C8          0.7145    1.2375    0.0000 C.ar      1 <0>        0.00000
     10 C9          1.4289    0.8250    0.0000 C.ar      1 <0>        0.00000
     11 C10         0.7145    2.0625    0.0000 C.3       1 <0>        0.00000
     12 O1          1.5395    2.0625    0.0000 O.3       1 <0>        0.00000
     13 O2         -0.1105    2.0625    0.0000 O.3       1 <0>        0.00000
     14 C11         0.7145    2.8875    0.0000 C.3       1 <0>        0.00000
     15 F1          0.7145    3.7125    0.0000 F         1 <0>        0.00000
     16 F2          1.5395    2.8875    0.0000 F         1 <0>        0.00000
     17 F3         -0.1105    2.8875    0.0000 F         1 <0>        0.00000
     18 H1          2.8579   -0.8250    0.0000 H         1 <0>        0.00000
     19 H2          2.8579   -0.8250    0.0000 H         1 <0>        0.00000
     20 H3          2.8579   -0.8250    0.0000 H         1 <0>        0.00000
     21 H4          2.5559    0.3020    0.0000 H         1 <0>        0.00000
     22 H5          2.5559    0.3020    0.0000 H         1 <0>        0.00000
     23 H6          2.5559    0.3020    0.0000 H         1 <0>        0.00000
     24 H7          1.7309   -1.1270    0.0000 H         1 <0>        0.00000
     25 H8          1.7309   -1.1270    0.0000 H         1 <0>        0.00000
     26 H9          1.7309   -1.1270    0.0000 H         1 <0>        0.00000
     27 H10         0.7145   -0.4125    0.0000 H         1 <0>        0.00000
     28 H11         0.0000    0.0000    0.0000 H         1 <0>        0.00000
     29 H12         0.0000    0.8250    0.0000 H         1 <0>        0.00000
     30 H13         1.4289    0.8250    0.0000 H         1 <0>        0.00000
     31 H14         1.5395    2.0625    0.0000 H         1 <0>        0.00000
     32 H15        -0.1105    2.0625    0.0000 H         1 <0>        0.00000
@<TRIPOS>BOND
     1    1    2 1
     2    2    3 1
     3    2    4 1
     4    2    5 1
     5    5    6 ar
     6    6    7 ar
     7    7    8 ar
     8    8    9 ar
     9    9   10 ar
    10    5   10 ar
    11    9   11 1
    12   11   12 1
    13   11   13 1
    14   11   14 1
    15   14   15 1
    16   14   16 1
    17   14   17 1
    18    1   18 1
    19    1   19 1
    20    1   20 1
    21    3   21 1
    22    3   22 1
    23    3   23 1
    24    4   24 1
    25    4   25 1
    26    4   26 1
    27    6   27 1
    28    7   28 1
    29    8   29 1
    30   10   30 1
    31   12   31 1
    32   13   32 1
@<TRIPOS>SUBSTRUCTURE
     1 <0>         1 GROUP 0 A     ****
@<TRIPOS>MOLECULE
*****
  109   112     1     0     0
SMALL
NO_CHARGES

 
@<TRIPOS>ATOM
      1 C1          6.6881  -10.5220    0.0000 C.3       1 <0>        0.00000
      2 C2          7.4025  -10.1094    0.0000 C.2       1 <0>        0.00000
      3 N1          8.1171  -10.5220    0.0000 N.am      1 <0>        0.00000
      4 C3          8.8315  -10.1094    0.0000 C.3       1 <0>        0.00000
      5 C4          9.5460  -10.5220    0.0000 C.2       1 <0>        0.00000
      6 N2         10.2605  -10.1094    0.0000 N.am      1 <0>        0.00000
      7 C5         10.9750  -10.5220    0.0000 C.3       1 <0>        0.00000
      8 C6         11.6895  -10.1094    0.0000 C.2       1 <0>        0.00000
      9 N3         12.4040  -10.5220    0.0000 N.am      1 <0>        0.00000
     10 C7         13.1185  -10.1094    0.0000 C.3       1 <0>        0.00000
     11 C8         13.8330  -10.5220    0.0000 C.2       1 <0>        0.00000
     12 N4         14.5474  -10.1094    0.0000 N.am      1 <0>        0.00000
     13 C9         15.2619  -10.5220    0.0000 C.3       1 <0>        0.00000
     14 C10        15.9765  -10.1094    0.0000 C.2       1 <0>        0.00000
     15 N5          5.9736  -10.1094    0.0000 N.3       1 <0>        0.00000
     16 C11        16.6390  -10.5165    0.0000 C.3       1 <0>        0.00000
     17 C12         5.9736   -9.2846    0.0000 C.3       1 <0>        0.00000
     18 C13         5.2592   -8.8721    0.0000 C.3       1 <0>        0.00000
     19 O1          4.5446   -9.2845    0.0000 O.3       1 <0>        0.00000
     20 C14         4.5446  -10.1094    0.0000 C.3       1 <0>        0.00000
     21 C15         5.2592  -10.5220    0.0000 C.3       1 <0>        0.00000
     22 O2         15.9466   -9.2846    0.0000 O.2       1 <0>        0.00000
     23 O3         13.8330  -11.3469    0.0000 O.2       1 <0>        0.00000
     24 O4         11.6895   -9.2845    0.0000 O.2       1 <0>        0.00000
     25 O5          9.5460  -11.3469    0.0000 O.2       1 <0>        0.00000
     26 O6          7.4025   -9.2846    0.0000 O.2       1 <0>        0.00000
     27 C16        13.1185   -9.2844    0.0000 C.3       1 <0>        0.00000
     28 C17         8.8315   -9.2844    0.0000 C.3       1 <0>        0.00000
     29 C18        15.2619  -11.3470    0.0000 C.3       1 <0>        0.00000
     30 C19        10.9750  -11.3470    0.0000 C.3       1 <0>        0.00000
     31 O7         17.3549  -10.1289    0.0000 O.3       1 <0>        0.00000
     32 C20        17.3535  -10.9291    0.0000 C.3       1 <0>        0.00000
     33 C21        13.8365   -8.8699    0.0000 C.ar      1 <0>        0.00000
     34 C22         9.5472   -8.8712    0.0000 C.3       1 <0>        0.00000
     35 C23         9.5472   -8.0462    0.0000 C.ar      1 <0>        0.00000
     36 C24        10.2517   -7.6393    0.0000 C.ar      1 <0>        0.00000
     37 C25        10.2516   -6.8143    0.0000 C.ar      1 <0>        0.00000
     38 C26         9.5371   -6.4019    0.0000 C.ar      1 <0>        0.00000
     39 C27         8.8326   -6.8087    0.0000 C.ar      1 <0>        0.00000
     40 C28         8.8327   -7.6337    0.0000 C.ar      1 <0>        0.00000
     41 C29        14.5428   -9.2777    0.0000 C.ar      1 <0>        0.00000
     42 C30        15.2573   -8.8653    0.0000 C.ar      1 <0>        0.00000
     43 C31        15.2574   -8.0403    0.0000 C.ar      1 <0>        0.00000
     44 C32        14.5511   -7.6324    0.0000 C.ar      1 <0>        0.00000
     45 C33        13.8366   -8.0448    0.0000 C.ar      1 <0>        0.00000
     46 C34        11.6895  -11.7595    0.0000 C.3       1 <0>        0.00000
     47 C35        12.3964  -11.3513    0.0000 C.3       1 <0>        0.00000
     48 C36        11.6895  -12.5844    0.0000 C.3       1 <0>        0.00000
     49 C37        15.9764  -11.7595    0.0000 C.3       1 <0>        0.00000
     50 C38        16.6857  -11.3499    0.0000 C.3       1 <0>        0.00000
     51 C39        15.9765  -12.5845    0.0000 C.3       1 <0>        0.00000
     52 C40        16.6390   -9.6915    0.0000 C.3       1 <0>        0.00000
     53 H1          6.6881  -10.5220    0.0000 H         1 <0>        0.00000
     54 H2          6.6881  -10.5220    0.0000 H         1 <0>        0.00000
     55 H3          8.1171  -10.5220    0.0000 H         1 <0>        0.00000
     56 H4          8.8315  -10.1094    0.0000 H         1 <0>        0.00000
     57 H5         10.2605  -10.1094    0.0000 H         1 <0>        0.00000
     58 H6         10.9750  -10.5220    0.0000 H         1 <0>        0.00000
     59 H7         12.4040  -10.5220    0.0000 H         1 <0>        0.00000
     60 H8         13.1185  -10.1094    0.0000 H         1 <0>        0.00000
     61 H9         14.5474  -10.1094    0.0000 H         1 <0>        0.00000
     62 H10        15.2619  -10.5220    0.0000 H         1 <0>        0.00000
     63 H11         5.9736   -9.2846    0.0000 H         1 <0>        0.00000
     64 H12         5.9736   -9.2846    0.0000 H         1 <0>        0.00000
     65 H13         5.2592   -8.8721    0.0000 H         1 <0>        0.00000
     66 H14         5.2592   -8.8721    0.0000 H         1 <0>        0.00000
     67 H15         4.5446  -10.1094    0.0000 H         1 <0>        0.00000
     68 H16         4.5446  -10.1094    0.0000 H         1 <0>        0.00000
     69 H17         5.2592  -10.5220    0.0000 H         1 <0>        0.00000
     70 H18         5.2592  -10.5220    0.0000 H         1 <0>        0.00000
     71 H19        13.1185   -9.2844    0.0000 H         1 <0>        0.00000
     72 H20        13.1185   -9.2844    0.0000 H         1 <0>        0.00000
     73 H21         8.8315   -9.2844    0.0000 H         1 <0>        0.00000
     74 H22         8.8315   -9.2844    0.0000 H         1 <0>        0.00000
     75 H23        15.2619  -11.3470    0.0000 H         1 <0>        0.00000
     76 H24        15.2619  -11.3470    0.0000 H         1 <0>        0.00000
     77 H25        10.9750  -11.3470    0.0000 H         1 <0>        0.00000
     78 H26        10.9750  -11.3470    0.0000 H         1 <0>        0.00000
     79 H27        17.3535  -10.9291    0.0000 H         1 <0>        0.00000
     80 H28        17.3535  -10.9291    0.0000 H         1 <0>        0.00000
     81 H29         9.5472   -8.8712    0.0000 H         1 <0>        0.00000
     82 H30         9.5472   -8.8712    0.0000 H         1 <0>        0.00000
     83 H31        10.2517   -7.6393    0.0000 H         1 <0>        0.00000
     84 H32        10.2516   -6.8143    0.0000 H         1 <0>        0.00000
     85 H33         9.5371   -6.4019    0.0000 H         1 <0>        0.00000
     86 H34         8.8326   -6.8087    0.0000 H         1 <0>        0.00000
     87 H35         8.8327   -7.6337    0.0000 H         1 <0>        0.00000
     88 H36        14.5428   -9.2777    0.0000 H         1 <0>        0.00000
     89 H37        15.2573   -8.8653    0.0000 H         1 <0>        0.00000
     90 H38        15.2574   -8.0403    0.0000 H         1 <0>        0.00000
     91 H39        14.5511   -7.6324    0.0000 H         1 <0>        0.00000
     92 H40        13.8366   -8.0448    0.0000 H         1 <0>        0.00000
     93 H41        11.6895  -11.7595    0.0000 H         1 <0>        0.00000
     94 H42        12.3964  -11.3513    0.0000 H         1 <0>        0.00000
     95 H43        12.3964  -11.3513    0.0000 H         1 <0>        0.00000
     96 H44        12.3964  -11.3513    0.0000 H         1 <0>        0.00000
     97 H45        11.6895  -12.5844    0.0000 H         1 <0>        0.00000
     98 H46        11.6895  -12.5844    0.0000 H         1 <0>        0.00000
     99 H47        11.6895  -12.5844    0.0000 H         1 <0>        0.00000
    100 H48        15.9764  -11.7595    0.0000 H         1 <0>        0.00000
    101 H49        16.6857  -11.3499    0.0000 H         1 <0>        0.00000
    102 H50        16.6857  -11.3499    0.0000 H         1 <0>        0.00000
    103 H51        16.6857  -11.3499    0.0000 H         1 <0>        0.00000
    104 H52        15.9765  -12.5845    0.0000 H         1 <0>        0.00000
    105 H53        15.9765  -12.5845    0.0000 H         1 <0>        0.00000
    106 H54        15.9765  -12.5845    0.0000 H         1 <0>        0.00000
    107 H55        16.6390   -9.6915    0.0000 H         1 <0>        0.00000
    108 H56        16.6390   -9.6915    0.0000 H         1 <0>        0.00000
    109 H57        16.6390   -9.6915    0.0000 H         1 <0>        0.00000
@<TRIPOS>BOND
     1    1    2 1
     2    2    3 am
     3    3    4 1
     4    4    5 1
     5    5    6 am
     6    6    7 1
     7    7    8 1
     8    8    9 am
     9    9   10 1
    10   10   11 1
    11   11   12 am
    12   12   13 1
    13   13   14 1
    14    1   15 1
    15   14   16 1
    16   15   17 1
    17   17   18 1
    18   18   19 1
    19   19   20 1
    20   20   21 1
    21   15   21 1
    22   14   22 2
    23   11   23 2
    24    8   24 2
    25    5   25 2
    26    2   26 2
    27   10   27 1
    28    4   28 1
    29   13   29 1
    30    7   30 1
    31   16   31 1
    32   16   32 1
    33   31   32 1
    34   27   33 1
    35   28   34 1
    36   34   35 1
    37   35   36 ar
    38   36   37 ar
    39   37   38 ar
    40   38   39 ar
    41   39   40 ar
    42   35   40 ar
    43   33   41 ar
    44   41   42 ar
    45   42   43 ar
    46   43   44 ar
    47   44   45 ar
    48   33   45 ar
    49   30   46 1
    50   46   47 1
    51   46   48 1
    52   29   49 1
    53   49   50 1
    54   49   51 1
    55   16   52 1
    56    1   53 1
    57    1   54 1
    58    3   55 1
    59    4   56 1
    60    6   57 1
    61    7   58 1
    62    9   59 1
    63   10   60 1
    64   12   61 1
    65   13   62 1
    66   17   63 1
    67   17   64 1
    68   18   65 1
    69   18   66 1
    70   20   67 1
    71   20   68 1
    72   21   69 1
    73   21   70 1
    74   27   71 1
    75   27   72 1
    76   28   73 1
    77   28   74 1
    78   29   75 1
    79   29   76 1
    80   30   77 1
    81   30   78 1
    82   32   79 1
    83   32   80 1
    84   34   81 1
    85   34   82 1
    86   36   83 1
    87   37   84 1
    88   38   85 1
    89   39   86 1
    90   40   87 1
    91   41   88 1
    92   42   89 1
    93   43   90 1
    94   44   91 1
    95   45   92 1
    96   46   93 1
    97   47   94 1
    98   47   95 1
    99   47   96 1
   100   48   97 1
   101   48   98 1
   102   48   99 1
   103   49  100 1
   104   50  101 1
   105   50  102 1
   106   50  103 1
   107   51  104 1
   108   51  105 1
   109   51  106 1
   110   52  107 1
   111   52  108 1
   112   52  109 1
@<TRIPOS>SUBSTRUCTURE
     1 <0>         1 GROUP 0 A     ****
@<TRIPOS>MOLECULE
79Z
   54    57     1     0     0
SMALL
NO_CHARGES

@<TRIPOS>ATOM
      1 C1          2.1861    1.2467    0.0000 C.3       1 <0>        0.00000
      2 C2          1.7736    0.5322    0.0000 C.3       1 <0>        0.00000
      3 C3          2.5986    0.5322    0.0000 C.3       1 <0>        0.00000
      4 C4         -2.4643   -0.2928    0.0000 C.ar      1 <0>        0.00000
      5 C5         -2.8768    0.4217    0.0000 C.ar      1 <0>        0.00000
      6 C6         -3.7018    0.4217    0.0000 C.ar      1 <0>        0.00000
      7 C7         -4.1143   -0.2928    0.0000 C.ar      1 <0>        0.00000
      8 C8         -3.7018   -1.0073    0.0000 C.ar      1 <0>        0.00000
      9 C9         -2.8768   -1.0073    0.0000 C.ar      1 <0>        0.00000
     10 C10         1.0592    0.1197    0.0000 C.ar      1 <0>        0.00000
     11 C11         1.0592   -0.7053    0.0000 C.ar      1 <0>        0.00000
     12 C12         0.3447   -1.1178    0.0000 C.ar      1 <0>        0.00000
     13 C13         0.3447    0.5322    0.0000 C.ar      1 <0>        0.00000
     14 C14        -0.3698    0.1197    0.0000 C.ar      1 <0>        0.00000
     15 C15        -0.3698   -0.7053    0.0000 C.ar      1 <0>        0.00000
     16 O1         -1.1544   -0.9602    0.0000 O.3       1 <0>        0.00000
     17 C16        -1.6393   -0.2928    0.0000 C.ar      1 <0>        0.00000
     18 C17        -1.1544    0.3746    0.0000 C.ar      1 <0>        0.00000
     19 C18        -1.4093    1.1593    0.0000 C.2       1 <0>        0.00000
     20 O2         -0.8573    1.7724    0.0000 O.2       1 <0>        0.00000
     21 N1         -2.2163    1.3308    0.0000 N.am      1 <0>        0.00000
     22 C19        -2.4712    2.1154    0.0000 C.3       1 <0>        0.00000
     23 N2          1.7736   -1.1178    0.0000 N.pl3     1 <0>        0.00000
     24 S1          1.7736   -1.9428    0.0000 S.o2      1 <0>        0.00000
     25 O3          0.9486   -1.9428    0.0000 O.2       1 <0>        0.00000
     26 O4          1.7736   -2.7678    0.0000 O.2       1 <0>        0.00000
     27 C20         2.5986   -1.9428    0.0000 C.3       1 <0>        0.00000
     28 F1         -4.9393   -0.2928    0.0000 F         1 <0>        0.00000
     29 C21         2.4881   -0.7053    0.0000 C.3       1 <0>        0.00000
     30 C22         3.2026   -1.1178    0.0000 C.3       1 <0>        0.00000
     31 O5          3.9171   -0.7053    0.0000 O.3       1 <0>        0.00000
     32 H1          2.1861    1.2467    0.0000 H         1 <0>        0.00000
     33 H2          2.1861    1.2467    0.0000 H         1 <0>        0.00000
     34 H3          1.7736    0.5322    0.0000 H         1 <0>        0.00000
     35 H4          2.5986    0.5322    0.0000 H         1 <0>        0.00000
     36 H5          2.5986    0.5322    0.0000 H         1 <0>        0.00000
     37 H6         -2.8768    0.4217    0.0000 H         1 <0>        0.00000
     38 H7         -3.7018    0.4217    0.0000 H         1 <0>        0.00000
     39 H8         -3.7018   -1.0073    0.0000 H         1 <0>        0.00000
     40 H9         -2.8768   -1.0073    0.0000 H         1 <0>        0.00000
     41 H10         0.3447   -1.1178    0.0000 H         1 <0>        0.00000
     42 H11         0.3447    0.5322    0.0000 H         1 <0>        0.00000
     43 H12        -2.2163    1.3308    0.0000 H         1 <0>        0.00000
     44 H13        -2.4712    2.1154    0.0000 H         1 <0>        0.00000
     45 H14        -2.4712    2.1154    0.0000 H         1 <0>        0.00000
     46 H15        -2.4712    2.1154    0.0000 H         1 <0>        0.00000
     47 H16         2.5986   -1.9428    0.0000 H         1 <0>        0.00000
     48 H17         2.5986   -1.9428    0.0000 H         1 <0>        0.00000
     49 H18         2.5986   -1.9428    0.0000 H         1 <0>        0.00000
     50 H19         2.4881   -0.7053    0.0000 H         1 <0>        0.00000
     51 H20         2.4881   -0.7053    0.0000 H         1 <0>        0.00000
     52 H21         3.2026   -1.1178    0.0000 H         1 <0>        0.00000
     53 H22         3.2026   -1.1178    0.0000 H         1 <0>        0.00000
     54 H23         3.9171   -0.7053    0.0000 H         1 <0>        0.00000
@<TRIPOS>BOND
     1    1    3 1
     2    1    2 1
     3    2   10 1
     4    2    3 1
     5    4    9 ar
     6    5    6 ar
     7    4    5 ar
     8    6    7 ar
     9    7   28 1
    10    7    8 ar
    11    8    9 ar
    12   10   11 ar
    13   11   12 ar
    14   11   23 1
    15   13   14 ar
    16   10   13 ar
    17   14   15 ar
    18   15   16 1
    19   12   15 ar
    20    4   17 1
    21   16   17 1
    22   14   18 1
    23   17   18 2
    24   18   19 1
    25   19   20 2
    26   19   21 am
    27   21   22 1
    28   23   24 1
    29   24   25 2
    30   24   27 1
    31   24   26 2
    32   23   29 1
    33   29   30 1
    34   30   31 1
    35    1   32 1
    36    1   33 1
    37    2   34 1
    38    3   35 1
    39    3   36 1
    40    5   37 1
    41    6   38 1
    42    8   39 1
    43    9   40 1
    44   12   41 1
    45   13   42 1
    46   21   43 1
    47   22   44 1
    48   22   45 1
    49   22   46 1
    50   27   47 1
    51   27   48 1
    52   27   49 1
    53   29   50 1
    54   29   51 1
    55   30   52 1
    56   30   53 1
    57   31   54 1
@<TRIPOS>SUBSTRUCTURE
     1 <0>         1 GROUP 0 A     ****
@<TRIPOS>MOLECULE
RMA
   29    30     1     0     0
SMALL
NO_CHARGES

@<TRIPOS>ATOM
      1 C1         -1.7541    2.5480    0.0000 C.1       1 <0>        0.00000
      2 C2         -1.4991    1.7634    0.0000 C.1       1 <0>        0.00000
      3 C3         -1.2442    0.9787    0.0000 C.3       1 <0>        0.00000
      4 N1         -0.4372    0.8072    0.0000 N.3       1 <0>        0.00000
      5 C4          0.1148    1.4203    0.0000 C.3       1 <0>        0.00000
      6 C5         -0.1823    0.0226    0.0000 C.3       1 <0>        0.00000
      7 C6         -0.6672   -0.6449    0.0000 C.3       1 <0>        0.00000
      8 C7         -0.1823   -1.3123    0.0000 C.3       1 <0>        0.00000
      9 C8          0.6023   -1.0574    0.0000 C.ar      1 <0>        0.00000
     10 C9          0.6023   -0.2324    0.0000 C.ar      1 <0>        0.00000
     11 C10         1.3168    0.1801    0.0000 C.ar      1 <0>        0.00000
     12 C11         1.3168   -1.4699    0.0000 C.ar      1 <0>        0.00000
     13 C12         2.0313   -1.0574    0.0000 C.ar      1 <0>        0.00000
     14 C13         2.0313   -0.2324    0.0000 C.ar      1 <0>        0.00000
     15 H1         -0.7590    0.1139    0.0000 H         1 <0>        0.00000
     16 H2         -1.7541    2.5480    0.0000 H         1 <0>        0.00000
     17 H3         -1.2442    0.9787    0.0000 H         1 <0>        0.00000
     18 H4         -1.2442    0.9787    0.0000 H         1 <0>        0.00000
     19 H5          0.1148    1.4203    0.0000 H         1 <0>        0.00000
     20 H6          0.1148    1.4203    0.0000 H         1 <0>        0.00000
     21 H7          0.1148    1.4203    0.0000 H         1 <0>        0.00000
     22 H8         -0.6672   -0.6449    0.0000 H         1 <0>        0.00000
     23 H9         -0.6672   -0.6449    0.0000 H         1 <0>        0.00000
     24 H10        -0.1823   -1.3123    0.0000 H         1 <0>        0.00000
     25 H11        -0.1823   -1.3123    0.0000 H         1 <0>        0.00000
     26 H12         1.3168    0.1801    0.0000 H         1 <0>        0.00000
     27 H13         1.3168   -1.4699    0.0000 H         1 <0>        0.00000
     28 H14         2.0313   -1.0574    0.0000 H         1 <0>        0.00000
     29 H15         2.0313   -0.2324    0.0000 H         1 <0>        0.00000
@<TRIPOS>BOND
     1    1    2 3
     2    2    3 1
     3    3    4 1
     4    4    5 1
     5    4    6 1
     6    6    7 1
     7    6   10 1
     8    6   15 1
     9    7    8 1
    10    8    9 1
    11    9   10 ar
    12    9   12 ar
    13   10   11 ar
    14   11   14 ar
    15   12   13 ar
    16   13   14 ar
    17    1   16 1
    18    3   17 1
    19    3   18 1
    20    5   19 1
    21    5   20 1
    22    5   21 1
    23    7   22 1
    24    7   23 1
    25    8   24 1
    26    8   25 1
    27   11   26 1
    28   12   27 1
    29   13   28 1
    30   14   29 1
@<TRIPOS>SUBSTRUCTURE
     1 <0>         1 GROUP 0 A     ****
@<TRIPOS>MOLECULE
*****
   25    24     1     0     0
SMALL
NO_CHARGES

@<TRIPOS>ATOM
      1 N1          4.6184    2.6664    0.0000 N.3       1 <0>        0.00000
      2 C1          4.6184    1.8414    0.0000 C.3       1 <0>        0.00000
      3 C2          3.9039    1.4289    0.0000 C.3       1 <0>        0.00000
      4 C3          3.1895    1.8414    0.0000 C.3       1 <0>        0.00000
      5 C4          2.4750    1.4289    0.0000 C.3       1 <0>        0.00000
      6 N2          1.7605    1.8414    0.0000 N.2       1 <0>        0.00000
      7 C5          1.0461    1.4289    0.0000 C.2       1 <0>        0.00000
      8 N3          1.0461    0.6039    0.0000 N.pl3     1 <0>        0.00000
      9 S1          0.3316    1.8414    0.0000 S.3       1 <0>        0.00000
     10 C6          5.3329    1.4289    0.0000 C.2       1 <0>        0.00000
     11 O1          6.0474    1.8414    0.0000 O.3       1 <0>        0.00000
     12 O2          5.3329    0.6039    0.0000 O.2       1 <0>        0.00000
     13 H1          4.6184    2.6664    0.0000 H         1 <0>        0.00000
     14 H2          4.6184    2.6664    0.0000 H         1 <0>        0.00000
     15 H3          4.6184    1.8414    0.0000 H         1 <0>        0.00000
     16 H4          3.9039    1.4289    0.0000 H         1 <0>        0.00000
     17 H5          3.9039    1.4289    0.0000 H         1 <0>        0.00000
     18 H6          3.1895    1.8414    0.0000 H         1 <0>        0.00000
     19 H7          3.1895    1.8414    0.0000 H         1 <0>        0.00000
     20 H8          2.4750    1.4289    0.0000 H         1 <0>        0.00000
     21 H9          2.4750    1.4289    0.0000 H         1 <0>        0.00000
     22 H10         1.0461    0.6039    0.0000 H         1 <0>        0.00000
     23 H11         1.0461    0.6039    0.0000 H         1 <0>        0.00000
     24 H12         0.3316    1.8414    0.0000 H         1 <0>        0.00000
     25 H13         6.0474    1.8414    0.0000 H         1 <0>        0.00000
@<TRIPOS>BOND
     1    1    2 1
     2    2    3 1
     3    3    4 1
     4    4    5 1
     5    5    6 1
     6    6    7 2
     7    7    8 1
     8    7    9 1
     9    2   10 1
    10   10   11 1
    11   10   12 2
    12    1   13 1
    13    1   14 1
    14    2   15 1
    15    3   16 1
    16    3   17 1
    17    4   18 1
    18    4   19 1
    19    5   20 1
    20    5   21 1
    21    8   22 1
    22    8   23 1
    23    9   24 1
    24   11   25 1
@<TRIPOS>SUBSTRUCTURE
     1 <0>         1 GROUP 0 A     ****
@<TRIPOS>MOLECULE
*****
   14    13     1     0     0
SMALL
NO_CHARGES

@<TRIPOS>ATOM
      1 N1          1.9520    1.9520    0.0000 N.3       1 <0>        0.00000
      2 C1          1.9520    1.1270    0.0000 C.3       1 <0>        0.00000
      3 C2          1.2375    0.7145    0.0000 C.3       1 <0>        0.00000
      4 S1          0.5230    1.1270    0.0000 S.o       1 <0>        0.00000
      5 O1         -0.1914    0.7145    0.0000 O.2       1 <0>        0.00000
      6 C3          2.6664    0.7145    0.0000 C.2       1 <0>        0.00000
      7 O2          3.3809    1.1270    0.0000 O.3       1 <0>        0.00000
      8 O3          2.6664   -0.1105    0.0000 O.2       1 <0>        0.00000
      9 H1          1.9520    1.9520    0.0000 H         1 <0>        0.00000
     10 H2          1.9520    1.9520    0.0000 H         1 <0>        0.00000
     11 H3          1.9520    1.1270    0.0000 H         1 <0>        0.00000
     12 H4          1.2375    0.7145    0.0000 H         1 <0>        0.00000
     13 H5          1.2375    0.7145    0.0000 H         1 <0>        0.00000
     14 H6          3.3809    1.1270    0.0000 H         1 <0>        0.00000
@<TRIPOS>BOND
     1    1    2 1
     2    2    3 1
     3    3    4 1
     4    4    5 2
     5    2    6 1
     6    6    7 1
     7    6    8 2
     8    1    9 1
     9    1   10 1
    10    2   11 1
    11    3   12 1
    12    3   13 1
    13    7   14 1
@<TRIPOS>SUBSTRUCTURE
     1 <0>         1 GROUP 0 A     ****
@<TRIPOS>MOLECULE
*****
   18    19     1     0     0
SMALL
NO_CHARGES

@<TRIPOS>ATOM
      1 C1          6.8474   -9.9413    0.0000 C.ar      1 <0>        0.00000
      2 C2          7.6724   -9.9413    0.0000 C.ar      1 <0>        0.00000
      3 N1          7.9274   -9.1566    0.0000 N.am      1 <0>        0.00000
      4 O1          7.2600   -8.6717    0.0000 O.3       1 <0>        0.00000
      5 C3          6.5926   -9.1566    0.0000 C.ar      1 <0>        0.00000
      6 O2          8.0850  -10.6557    0.0000 O.2       1 <0>        0.00000
      7 C4          5.7856   -8.9851    0.0000 C.3       1 <0>        0.00000
      8 N2          5.2336   -9.5982    0.0000 N.3       1 <0>        0.00000
      9 C5          5.4885  -10.3828    0.0000 C.3       1 <0>        0.00000
     10 C6          6.2955  -10.5544    0.0000 C.3       1 <0>        0.00000
     11 H1          7.9274   -9.1566    0.0000 H         1 <0>        0.00000
     12 H2          5.7856   -8.9851    0.0000 H         1 <0>        0.00000
     13 H3          5.7856   -8.9851    0.0000 H         1 <0>        0.00000
     14 H4          5.2336   -9.5982    0.0000 H         1 <0>        0.00000
     15 H5          5.4885  -10.3828    0.0000 H         1 <0>        0.00000
     16 H6          5.4885  -10.3828    0.0000 H         1 <0>        0.00000
     17 H7          6.2955  -10.5544    0.0000 H         1 <0>        0.00000
     18 H8          6.2955  -10.5544    0.0000 H         1 <0>        0.00000
@<TRIPOS>BOND
     1    1    2 1
     2    2    3 am
     3    3    4 1
     4    4    5 1
     5    1    5 2
     6    2    6 2
     7    5    7 1
     8    7    8 1
     9    8    9 1
    10    9   10 1
    11    1   10 1
    12    3   11 1
    13    7   12 1
    14    7   13 1
    15    8   14 1
    16    9   15 1
    17    9   16 1
    18   10   17 1
    19   10   18 1
@<TRIPOS>SUBSTRUCTURE
     1 <0>         1 GROUP 0 A     ****
@<TRIPOS>MOLECULE
957
   58    61     1     0     0
SMALL
NO_CHARGES

@<TRIPOS>ATOM
      1 O1          8.7053    0.8591    0.0000 O.3       1 <0>        0.00000
      2 O2          9.5431   -0.2985    0.0000 O.2       1 <0>        0.00000
      3 O3          2.0940   -1.9791    0.0000 O.3       1 <0>        0.00000
      4 N1          2.8069   -2.3944    0.0000 N.2       1 <0>        0.00000
      5 C1          7.2563    0.1238    0.0000 C.3       1 <0>        0.00000
      6 C2          7.2563   -0.7012    0.0000 C.3       1 <0>        0.00000
      7 C3          6.5418   -1.1137    0.0000 C.3       1 <0>        0.00000
      8 C4          5.8274   -0.7012    0.0000 C.3       1 <0>        0.00000
      9 C5          8.0369    0.3753    0.0000 C.3       1 <0>        0.00000
     10 C6          6.5418    0.5363    0.0000 C.3       1 <0>        0.00000
     11 C7          8.0369   -0.9526    0.0000 C.3       1 <0>        0.00000
     12 C8          5.8274    0.1238    0.0000 C.3       1 <0>        0.00000
     13 C9          8.5184   -0.2887    0.0000 C.3       1 <0>        0.00000
     14 C10         5.0766   -1.1193    0.0000 C.3       1 <0>        0.00000
     15 C11         6.5550   -1.9729    0.0000 C.3       1 <0>        0.00000
     16 C12         7.2563    0.9489    0.0000 C.3       1 <0>        0.00000
     17 C13         5.8142   -2.4083    0.0000 C.3       1 <0>        0.00000
     18 C14         5.0699   -1.9786    0.0000 C.2       1 <0>        0.00000
     19 C15         4.3119   -0.6539    0.0000 C.3       1 <0>        0.00000
     20 C16         7.7834    1.1604    0.0000 C.1       1 <0>        0.00000
     21 C17         6.5418    1.3614    0.0000 C.3       1 <0>        0.00000
     22 C18         3.5298   -1.0895    0.0000 C.3       1 <0>        0.00000
     23 C19         4.2982   -2.4322    0.0000 C.2       1 <0>        0.00000
     24 C20         3.5230   -1.9846    0.0000 C.2       1 <0>        0.00000
     25 C21         9.4583    0.5222    0.0000 C.2       1 <0>        0.00000
     26 C22         7.5298    1.9454    0.0000 C.1       1 <0>        0.00000
     27 C23        10.1266    1.0059    0.0000 C.3       1 <0>        0.00000
     28 H1          7.3262   -1.3575    0.0000 H         1 <0>        0.00000
     29 H2          7.1159   -1.4392    0.0000 H         1 <0>        0.00000
     30 H3          6.3989   -0.3712    0.0000 H         1 <0>        0.00000
     31 H4          5.0893   -0.4595    0.0000 H         1 <0>        0.00000
     32 H5          2.0940   -1.9791    0.0000 H         1 <0>        0.00000
     33 H6          6.5418    0.5363    0.0000 H         1 <0>        0.00000
     34 H7          6.5418    0.5363    0.0000 H         1 <0>        0.00000
     35 H8          8.0369   -0.9526    0.0000 H         1 <0>        0.00000
     36 H9          8.0369   -0.9526    0.0000 H         1 <0>        0.00000
     37 H10         5.8274    0.1238    0.0000 H         1 <0>        0.00000
     38 H11         5.8274    0.1238    0.0000 H         1 <0>        0.00000
     39 H12         8.5184   -0.2887    0.0000 H         1 <0>        0.00000
     40 H13         8.5184   -0.2887    0.0000 H         1 <0>        0.00000
     41 H14         6.5550   -1.9729    0.0000 H         1 <0>        0.00000
     42 H15         6.5550   -1.9729    0.0000 H         1 <0>        0.00000
     43 H16         7.2563    0.9489    0.0000 H         1 <0>        0.00000
     44 H17         7.2563    0.9489    0.0000 H         1 <0>        0.00000
     45 H18         5.8142   -2.4083    0.0000 H         1 <0>        0.00000
     46 H19         5.8142   -2.4083    0.0000 H         1 <0>        0.00000
     47 H20         4.3119   -0.6539    0.0000 H         1 <0>        0.00000
     48 H21         4.3119   -0.6539    0.0000 H         1 <0>        0.00000
     49 H22         6.5418    1.3614    0.0000 H         1 <0>        0.00000
     50 H23         6.5418    1.3614    0.0000 H         1 <0>        0.00000
     51 H24         6.5418    1.3614    0.0000 H         1 <0>        0.00000
     52 H25         3.5298   -1.0895    0.0000 H         1 <0>        0.00000
     53 H26         3.5298   -1.0895    0.0000 H         1 <0>        0.00000
     54 H27         4.2982   -2.4322    0.0000 H         1 <0>        0.00000
     55 H28         7.5298    1.9454    0.0000 H         1 <0>        0.00000
     56 H29        10.1266    1.0059    0.0000 H         1 <0>        0.00000
     57 H30        10.1266    1.0059    0.0000 H         1 <0>        0.00000
     58 H31        10.1266    1.0059    0.0000 H         1 <0>        0.00000
@<TRIPOS>BOND
     1    1    9 1
     2    1   25 1
     3    2   25 2
     4    3    4 1
     5    4   24 2
     6    5    6 1
     7    5    9 1
     8    5   10 1
     9    5   16 1
    10    6    7 1
    11    6   11 1
    12    6   28 1
    13    7    8 1
    14    7   15 1
    15    7   29 1
    16    8   12 1
    17    8   14 1
    18    8   30 1
    19    9   13 1
    20    9   20 1
    21   10   12 1
    22   11   13 1
    23   14   18 1
    24   14   19 1
    25   14   31 1
    26   15   17 1
    27   16   21 1
    28   17   18 1
    29   18   23 2
    30   19   22 1
    31   20   26 3
    32   22   24 1
    33   23   24 1
    34   25   27 1
    35    3   32 1
    36   10   33 1
    37   10   34 1
    38   11   35 1
    39   11   36 1
    40   12   37 1
    41   12   38 1
    42   13   39 1
    43   13   40 1
    44   15   41 1
    45   15   42 1
    46   16   43 1
    47   16   44 1
    48   17   45 1
    49   17   46 1
    50   19   47 1
    51   19   48 1
    52   21   49 1
    53   21   50 1
    54   21   51 1
    55   22   52 1
    56   22   53 1
    57   23   54 1
    58   26   55 1
    59   27   56 1
    60   27   57 1
    61   27   58 1
@<TRIPOS>SUBSTRUCTURE
     1 <0>         1 GROUP 0 A     ****
@<TRIPOS>MOLECULE
*****
   60    64     1     0     0
SMALL
NO_CHARGES

@<TRIPOS>ATOM
      1 O1          0.2122    0.6611    0.0000 O.3       1 <0>        0.00000
      2 O2          0.0407   -0.1459    0.0000 O.3       1 <0>        0.00000
      3 C1          0.6538   -0.6979    0.0000 C.3       1 <0>        0.00000
      4 C2          0.0407   -1.2500    0.0000 C.3       1 <0>        0.00000
      5 C3         -0.7439   -0.9950    0.0000 C.ar      1 <0>        0.00000
      6 C4         -1.3570   -1.5471    0.0000 C.ar      1 <0>        0.00000
      7 C5         -2.1416   -1.2921    0.0000 C.ar      1 <0>        0.00000
      8 C6         -2.3132   -0.4852    0.0000 C.ar      1 <0>        0.00000
      9 O3         -3.0978   -0.2302    0.0000 O.3       1 <0>        0.00000
     10 C7         -1.7001    0.0669    0.0000 C.ar      1 <0>        0.00000
     11 C8         -0.9154   -0.1881    0.0000 C.ar      1 <0>        0.00000
     12 N1          1.1387   -0.0305    0.0000 N.2       1 <0>        0.00000
     13 C9          1.9233   -0.2854    0.0000 C.2       1 <0>        0.00000
     14 C10         2.6378    0.1271    0.0000 C.3       1 <0>        0.00000
     15 C11         2.6378    0.9521    0.0000 C.3       1 <0>        0.00000
     16 C12         3.3523    1.3646    0.0000 C.3       1 <0>        0.00000
     17 C13         3.4385    2.1850    0.0000 C.3       1 <0>        0.00000
     18 C14         4.2455    2.3566    0.0000 C.3       1 <0>        0.00000
     19 C15         4.6580    1.6421    0.0000 C.3       1 <0>        0.00000
     20 C16         4.1060    1.0290    0.0000 C.3       1 <0>        0.00000
     21 N2          3.3523   -0.2854    0.0000 N.pl3     1 <0>        0.00000
     22 C17         3.3523   -1.1104    0.0000 C.2       1 <0>        0.00000
     23 C18         2.6378   -1.5229    0.0000 C.2       1 <0>        0.00000
     24 N3          1.9233   -1.1104    0.0000 N.am      1 <0>        0.00000
     25 C19         1.1387   -1.3654    0.0000 C.2       1 <0>        0.00000
     26 O4          0.8838   -2.1500    0.0000 O.2       1 <0>        0.00000
     27 C20         4.0668   -1.5229    0.0000 C.ar      1 <0>        0.00000
     28 C21         4.7812   -1.1104    0.0000 C.ar      1 <0>        0.00000
     29 C22         5.4957   -1.5229    0.0000 C.ar      1 <0>        0.00000
     30 C23         5.4957   -2.3479    0.0000 C.ar      1 <0>        0.00000
     31 O5          6.2102   -2.7604    0.0000 O.3       1 <0>        0.00000
     32 C24         4.7812   -2.7604    0.0000 C.ar      1 <0>        0.00000
     33 C25         4.0668   -2.3479    0.0000 C.ar      1 <0>        0.00000
     34 H1          0.2122    0.6611    0.0000 H         1 <0>        0.00000
     35 H2          0.0407   -1.2500    0.0000 H         1 <0>        0.00000
     36 H3          0.0407   -1.2500    0.0000 H         1 <0>        0.00000
     37 H4         -1.3570   -1.5471    0.0000 H         1 <0>        0.00000
     38 H5         -2.1416   -1.2921    0.0000 H         1 <0>        0.00000
     39 H6         -3.0978   -0.2302    0.0000 H         1 <0>        0.00000
     40 H7         -1.7001    0.0669    0.0000 H         1 <0>        0.00000
     41 H8         -0.9154   -0.1881    0.0000 H         1 <0>        0.00000
     42 H9          2.6378    0.1271    0.0000 H         1 <0>        0.00000
     43 H10         2.6378    0.9521    0.0000 H         1 <0>        0.00000
     44 H11         2.6378    0.9521    0.0000 H         1 <0>        0.00000
     45 H12         3.3523    1.3646    0.0000 H         1 <0>        0.00000
     46 H13         3.4385    2.1850    0.0000 H         1 <0>        0.00000
     47 H14         3.4385    2.1850    0.0000 H         1 <0>        0.00000
     48 H15         4.2455    2.3566    0.0000 H         1 <0>        0.00000
     49 H16         4.2455    2.3566    0.0000 H         1 <0>        0.00000
     50 H17         4.6580    1.6421    0.0000 H         1 <0>        0.00000
     51 H18         4.6580    1.6421    0.0000 H         1 <0>        0.00000
     52 H19         4.1060    1.0290    0.0000 H         1 <0>        0.00000
     53 H20         4.1060    1.0290    0.0000 H         1 <0>        0.00000
     54 H21         3.3523   -0.2854    0.0000 H         1 <0>        0.00000
     55 H22         2.6378   -1.5229    0.0000 H         1 <0>        0.00000
     56 H23         4.7812   -1.1104    0.0000 H         1 <0>        0.00000
     57 H24         5.4957   -1.5229    0.0000 H         1 <0>        0.00000
     58 H25         6.2102   -2.7604    0.0000 H         1 <0>        0.00000
     59 H26         4.7812   -2.7604    0.0000 H         1 <0>        0.00000
     60 H27         4.0668   -2.3479    0.0000 H         1 <0>        0.00000
@<TRIPOS>BOND
     1    1    2 1
     2    2    3 1
     3    3    4 1
     4    4    5 1
     5    5    6 ar
     6    6    7 ar
     7    7    8 ar
     8    8    9 1
     9    8   10 ar
    10   10   11 ar
    11    5   11 ar
    12    3   12 1
    13   12   13 2
    14   13   14 1
    15   14   15 1
    16   15   16 1
    17   16   17 1
    18   17   18 1
    19   18   19 1
    20   19   20 1
    21   16   20 1
    22   14   21 1
    23   21   22 1
    24   22   23 2
    25   23   24 1
    26   13   24 1
    27   24   25 am
    28    3   25 1
    29   25   26 2
    30   22   27 1
    31   27   28 ar
    32   28   29 ar
    33   29   30 ar
    34   30   31 1
    35   30   32 ar
    36   32   33 ar
    37   27   33 ar
    38    1   34 1
    39    4   35 1
    40    4   36 1
    41    6   37 1
    42    7   38 1
    43    9   39 1
    44   10   40 1
    45   11   41 1
    46   14   42 1
    47   15   43 1
    48   15   44 1
    49   16   45 1
    50   17   46 1
    51   17   47 1
    52   18   48 1
    53   18   49 1
    54   19   50 1
    55   19   51 1
    56   20   52 1
    57   20   53 1
    58   21   54 1
    59   23   55 1
    60   28   56 1
    61   29   57 1
    62   31   58 1
    63   32   59 1
    64   33   60 1
@<TRIPOS>SUBSTRUCTURE
     1 <0>         1 GROUP 0 A     ****
@<TRIPOS>MOLECULE
*****
   64    68     1     0     0
SMALL
NO_CHARGES

@<TRIPOS>ATOM
      1 C1          0.8772   -0.3633    0.0000 C.3       1 <0>        0.00000
      2 N1          0.8772   -1.1884    0.0000 N.am      1 <0>        0.00000
      3 C2          1.5787   -1.6011    0.0000 C.2       1 <0>        0.00000
      4 C3          2.2800   -1.1884    0.0000 C.2       1 <0>        0.00000
      5 C4          2.2800   -0.3633    0.0000 C.3       1 <0>        0.00000
      6 S1          1.5787    0.0492    0.0000 S.3       1 <0>        0.00000
      7 C5          0.0519   -0.3633    0.0000 C.3       1 <0>        0.00000
      8 C6          0.0519   -1.1884    0.0000 C.2       1 <0>        0.00000
      9 N2         -0.6906    0.0492    0.0000 N.am      1 <0>        0.00000
     10 C7         -1.3921   -0.3633    0.0000 C.2       1 <0>        0.00000
     11 O1         -1.3921   -1.1884    0.0000 O.2       1 <0>        0.00000
     12 O2         -0.6906   -1.6011    0.0000 O.2       1 <0>        0.00000
     13 C8         -2.0935    0.0492    0.0000 C.2       1 <0>        0.00000
     14 S2          3.0227   -1.6011    0.0000 S.3       1 <0>        0.00000
     15 C9         -2.8362   -0.3633    0.0000 C.ar      1 <0>        0.00000
     16 H1          0.8772    0.4619    0.0000 H         1 <0>        0.00000
     17 N3         -3.4551    0.1318    0.0000 N.ar      1 <0>        0.00000
     18 S3         -4.1565   -0.3220    0.0000 S.3       1 <0>        0.00000
     19 C10        -3.9089   -1.1472    0.0000 C.ar      1 <0>        0.00000
     20 N4         -3.0838   -1.1472    0.0000 N.ar      1 <0>        0.00000
     21 N5         -2.0935    0.8745    0.0000 N.2       1 <0>        0.00000
     22 C11         1.5787   -2.4263    0.0000 C.2       1 <0>        0.00000
     23 O3          2.2800   -2.8389    0.0000 O.co2     1 <0>        0.00000
     24 O4          0.8359   -2.8389    0.0000 O.co2     1 <0>        0.00000
     25 N6         -4.4042   -1.8073    0.0000 N.pl3     1 <0>        0.00000
     26 O5         -1.3921    1.2871    0.0000 O.3       1 <0>        0.00000
     27 C12        -0.6741    0.8803    0.0000 C.3       1 <0>        0.00000
     28 C13         0.0222    1.2900    0.0000 C.3       1 <0>        0.00000
     29 P1         -5.2293   -1.8073    0.0000 P.3       1 <0>        0.00000
     30 O6         -6.0546   -1.8073    0.0000 O.3       1 <0>        0.00000
     31 O7         -5.2293   -0.9821    0.0000 O.3       1 <0>        0.00000
     32 O8         -5.2293   -2.6325    0.0000 O.2       1 <0>        0.00000
     33 C14         3.7276   -1.1785    0.0000 C.ar      1 <0>        0.00000
     34 S4          4.4811   -1.4993    0.0000 S.3       1 <0>        0.00000
     35 C15         5.0190   -0.8817    0.0000 C.ar      1 <0>        0.00000
     36 C16         4.5979   -0.1794    0.0000 C.ar      1 <0>        0.00000
     37 N7          3.7998   -0.3629    0.0000 N.ar      1 <0>        0.00000
     38 C17         4.9132    0.5614    0.0000 C.ar      1 <0>        0.00000
     39 C18         5.7315    0.6611    0.0000 C.ar      1 <0>        0.00000
     40 C19         6.0546    1.4203    0.0000 C.ar      1 <0>        0.00000
     41 N8          5.5586    2.0795    0.0000 N.ar      1 <0>        0.00000
     42 C20         4.7403    1.9798    0.0000 C.ar      1 <0>        0.00000
     43 C21         4.4174    1.2207    0.0000 C.ar      1 <0>        0.00000
     44 C22         5.8817    2.8389    0.0000 C.3       1 <0>        0.00000
     45 H2          2.2800   -0.3633    0.0000 H         1 <0>        0.00000
     46 H3          2.2800   -0.3633    0.0000 H         1 <0>        0.00000
     47 H4          0.0519   -0.3633    0.0000 H         1 <0>        0.00000
     48 H5         -0.6906    0.0492    0.0000 H         1 <0>        0.00000
     49 H6         -4.4042   -1.8073    0.0000 H         1 <0>        0.00000
     50 H7         -0.6741    0.8803    0.0000 H         1 <0>        0.00000
     51 H8         -0.6741    0.8803    0.0000 H         1 <0>        0.00000
     52 H9          0.0222    1.2900    0.0000 H         1 <0>        0.00000
     53 H10         0.0222    1.2900    0.0000 H         1 <0>        0.00000
     54 H11         0.0222    1.2900    0.0000 H         1 <0>        0.00000
     55 H12        -6.0546   -1.8073    0.0000 H         1 <0>        0.00000
     56 H13        -5.2293   -0.9821    0.0000 H         1 <0>        0.00000
     57 H14         5.0190   -0.8817    0.0000 H         1 <0>        0.00000
     58 H15         5.7315    0.6611    0.0000 H         1 <0>        0.00000
     59 H16         6.0546    1.4203    0.0000 H         1 <0>        0.00000
     60 H17         4.7403    1.9798    0.0000 H         1 <0>        0.00000
     61 H18         4.4174    1.2207    0.0000 H         1 <0>        0.00000
     62 H19         5.8817    2.8389    0.0000 H         1 <0>        0.00000
     63 H20         5.8817    2.8389    0.0000 H         1 <0>        0.00000
     64 H21         5.8817    2.8389    0.0000 H         1 <0>        0.00000
@<TRIPOS>BOND
     1    1    2 1
     2    2    3 1
     3    3    4 2
     4    4    5 1
     5    5    6 1
     6    1    6 1
     7    1    7 1
     8    7    8 1
     9    2    8 am
    10    7    9 1
    11    9   10 am
    12   10   11 2
    13    8   12 2
    14   10   13 1
    15    4   14 1
    16   13   15 1
    17    1   16 1
    18   15   17 2
    19   17   18 1
    20   18   19 1
    21   19   20 2
    22   15   20 1
    23   13   21 2
    24    3   22 1
    25   22   23 1
    26   22   24 2
    27   19   25 1
    28   21   26 1
    29   26   27 1
    30   27   28 1
    31   25   29 1
    32   29   30 1
    33   29   31 1
    34   29   32 2
    35   14   33 1
    36   33   34 1
    37   34   35 1
    38   35   36 2
    39   36   37 1
    40   33   37 2
    41   36   38 1
    42   38   39 ar
    43   39   40 ar
    44   40   41 ar
    45   41   42 ar
    46   42   43 ar
    47   38   43 ar
    48   41   44 1
    49    5   45 1
    50    5   46 1
    51    7   47 1
    52    9   48 1
    53   25   49 1
    54   27   50 1
    55   27   51 1
    56   28   52 1
    57   28   53 1
    58   28   54 1
    59   30   55 1
    60   31   56 1
    61   35   57 1
    62   39   58 1
    63   40   59 1
    64   42   60 1
    65   43   61 1
    66   44   62 1
    67   44   63 1
    68   44   64 1
@<TRIPOS>SUBSTRUCTURE
     1 <0>         1 GROUP 0 A     ****
@<TRIPOS>MOLECULE
*****
   40    41     1     0     0
SMALL
NO_CHARGES

 
@<TRIPOS>ATOM
      1 C1         12.2919  -11.1782    0.0000 C.ar      1 <0>        0.00000
      2 C2         12.2919  -12.0032    0.0000 C.ar      1 <0>        0.00000
      3 C3         12.9931  -12.4156    0.0000 C.ar      1 <0>        0.00000
      4 C4         13.7356  -12.0032    0.0000 C.ar      1 <0>        0.00000
      5 C5         13.7356  -11.1782    0.0000 C.ar      1 <0>        0.00000
      6 C6         12.9931  -10.7657    0.0000 C.ar      1 <0>        0.00000
      7 C7         14.5605  -12.0032    0.0000 C.2       1 <0>        0.00000
      8 C8         13.7356  -13.4468    0.0000 C.3       1 <0>        0.00000
      9 C9         14.5605  -13.4468    0.0000 C.3       1 <0>        0.00000
     10 C10        14.1481  -12.7044    0.0000 C.3       1 <0>        0.00000
     11 C11        14.9730  -14.1481    0.0000 C.3       1 <0>        0.00000
     12 O1         14.5605  -11.1782    0.0000 O.2       1 <0>        0.00000
     13 N1         15.3855  -12.0032    0.0000 N.am      1 <0>        0.00000
     14 C12        15.7979  -11.3019    0.0000 C.3       1 <0>        0.00000
     15 C13        15.7979  -12.7044    0.0000 C.3       1 <0>        0.00000
     16 C14        16.6229  -12.7044    0.0000 C.3       1 <0>        0.00000
     17 C15        16.6229  -11.3019    0.0000 C.3       1 <0>        0.00000
     18 N2         15.7979  -14.1481    0.0000 N.3       1 <0>        0.00000
     19 H1         12.2919  -11.1782    0.0000 H         1 <0>        0.00000
     20 H2         12.2919  -12.0032    0.0000 H         1 <0>        0.00000
     21 H3         12.9931  -12.4156    0.0000 H         1 <0>        0.00000
     22 H4         13.7356  -11.1782    0.0000 H         1 <0>        0.00000
     23 H5         12.9931  -10.7657    0.0000 H         1 <0>        0.00000
     24 H6         13.7356  -13.4468    0.0000 H         1 <0>        0.00000
     25 H7         13.7356  -13.4468    0.0000 H         1 <0>        0.00000
     26 H8         14.5605  -13.4468    0.0000 H         1 <0>        0.00000
     27 H9         14.9730  -14.1481    0.0000 H         1 <0>        0.00000
     28 H10        14.9730  -14.1481    0.0000 H         1 <0>        0.00000
     29 H11        15.7979  -11.3019    0.0000 H         1 <0>        0.00000
     30 H12        15.7979  -11.3019    0.0000 H         1 <0>        0.00000
     31 H13        15.7979  -12.7044    0.0000 H         1 <0>        0.00000
     32 H14        15.7979  -12.7044    0.0000 H         1 <0>        0.00000
     33 H15        16.6229  -12.7044    0.0000 H         1 <0>        0.00000
     34 H16        16.6229  -12.7044    0.0000 H         1 <0>        0.00000
     35 H17        16.6229  -12.7044    0.0000 H         1 <0>        0.00000
     36 H18        16.6229  -11.3019    0.0000 H         1 <0>        0.00000
     37 H19        16.6229  -11.3019    0.0000 H         1 <0>        0.00000
     38 H20        16.6229  -11.3019    0.0000 H         1 <0>        0.00000
     39 H21        15.7979  -14.1481    0.0000 H         1 <0>        0.00000
     40 H22        15.7979  -14.1481    0.0000 H         1 <0>        0.00000
@<TRIPOS>BOND
     1    8   10 1
     2    9   10 1
     3    3    4 ar
     4    9   11 1
     5    4   10 1
     6    7   10 1
     7    4    5 ar
     8    7   12 2
     9    5    6 ar
    10    7   13 am
    11    1    6 ar
    12   13   14 1
    13   13   15 1
    14   15   16 1
    15    1    2 ar
    16   14   17 1
    17    2    3 ar
    18   11   18 1
    19    8    9 1
    20    1   19 1
    21    2   20 1
    22    3   21 1
    23    5   22 1
    24    6   23 1
    25    8   24 1
    26    8   25 1
    27    9   26 1
    28   11   27 1
    29   11   28 1
    30   14   29 1
    31   14   30 1
    32   15   31 1
    33   15   32 1
    34   16   33 1
    35   16   34 1
    36   16   35 1
    37   17   36 1
    38   17   37 1
    39   17   38 1
    40   18   39 1
    41   18   40 1
@<TRIPOS>SUBSTRUCTURE
     1 <0>         1 GROUP 0 A     ****
@<TRIPOS>MOLECULE
*****
   60    64     1     0     0
SMALL
NO_CHARGES

@<TRIPOS>ATOM
      1 S1          1.3140    4.4609    0.0000 S.3       1 <0>        0.00000
      2 O1         -3.2816   -1.6947    0.0000 O.2       1 <0>        0.00000
      3 O2         -0.5195   -2.5921    0.0000 O.2       1 <0>        0.00000
      4 N1         -1.8294   -1.9247    0.0000 N.am      1 <0>        0.00000
      5 N2          1.0590    2.3414    0.0000 N.pl3     1 <0>        0.00000
      6 N3          0.8292    3.7935    0.0000 N.ar      1 <0>        0.00000
      7 N4          0.5492    0.7722    0.0000 N.3       1 <0>        0.00000
      8 C1         -2.6141   -3.0046    0.0000 C.3       1 <0>        0.00000
      9 C2         -1.8294   -3.2595    0.0000 C.3       1 <0>        0.00000
     10 C3         -2.6141   -2.1796    0.0000 C.2       1 <0>        0.00000
     11 C4         -1.3445   -2.5921    0.0000 C.2       1 <0>        0.00000
     12 C5          1.3140    3.1260    0.0000 C.ar      1 <0>        0.00000
     13 C6          2.0987    3.3810    0.0000 C.ar      1 <0>        0.00000
     14 C7          2.0987    4.2060    0.0000 C.ar      1 <0>        0.00000
     15 C8         -3.2272   -3.5566    0.0000 C.3       1 <0>        0.00000
     16 C9         -1.6579   -4.0665    0.0000 C.3       1 <0>        0.00000
     17 C10        -1.5745   -1.1400    0.0000 C.3       1 <0>        0.00000
     18 C11         2.8132    2.9685    0.0000 C.ar      1 <0>        0.00000
     19 C12         2.8132    4.6185    0.0000 C.ar      1 <0>        0.00000
     20 C13         1.6112    1.7283    0.0000 C.3       1 <0>        0.00000
     21 C14         0.2521    2.1699    0.0000 C.3       1 <0>        0.00000
     22 C15        -3.0557   -4.3636    0.0000 C.3       1 <0>        0.00000
     23 C16        -2.2711   -4.6185    0.0000 C.3       1 <0>        0.00000
     24 C17         3.5276    3.3810    0.0000 C.ar      1 <0>        0.00000
     25 C18         1.3562    0.9437    0.0000 C.3       1 <0>        0.00000
     26 C19        -0.0028    1.3853    0.0000 C.3       1 <0>        0.00000
     27 C20         3.5276    4.2060    0.0000 C.ar      1 <0>        0.00000
     28 C21        -0.7676   -0.9685    0.0000 C.3       1 <0>        0.00000
     29 C22         0.2942   -0.0124    0.0000 C.3       1 <0>        0.00000
     30 C23        -0.5126   -0.1839    0.0000 C.3       1 <0>        0.00000
     31 H1         -0.8514   -3.4674    0.0000 H         1 <0>        0.00000
     32 H2         -3.5276   -2.5978    0.0000 H         1 <0>        0.00000
     33 H3         -3.2272   -3.5566    0.0000 H         1 <0>        0.00000
     34 H4         -3.2272   -3.5566    0.0000 H         1 <0>        0.00000
     35 H5         -1.6579   -4.0665    0.0000 H         1 <0>        0.00000
     36 H6         -1.6579   -4.0665    0.0000 H         1 <0>        0.00000
     37 H7         -1.5745   -1.1400    0.0000 H         1 <0>        0.00000
     38 H8         -1.5745   -1.1400    0.0000 H         1 <0>        0.00000
     39 H9          2.8132    2.9685    0.0000 H         1 <0>        0.00000
     40 H10         2.8132    4.6185    0.0000 H         1 <0>        0.00000
     41 H11         1.6112    1.7283    0.0000 H         1 <0>        0.00000
     42 H12         1.6112    1.7283    0.0000 H         1 <0>        0.00000
     43 H13         0.2521    2.1699    0.0000 H         1 <0>        0.00000
     44 H14         0.2521    2.1699    0.0000 H         1 <0>        0.00000
     45 H15        -3.0557   -4.3636    0.0000 H         1 <0>        0.00000
     46 H16        -3.0557   -4.3636    0.0000 H         1 <0>        0.00000
     47 H17        -2.2711   -4.6185    0.0000 H         1 <0>        0.00000
     48 H18        -2.2711   -4.6185    0.0000 H         1 <0>        0.00000
     49 H19         3.5276    3.3810    0.0000 H         1 <0>        0.00000
     50 H20         1.3562    0.9437    0.0000 H         1 <0>        0.00000
     51 H21         1.3562    0.9437    0.0000 H         1 <0>        0.00000
     52 H22        -0.0028    1.3853    0.0000 H         1 <0>        0.00000
     53 H23        -0.0028    1.3853    0.0000 H         1 <0>        0.00000
     54 H24         3.5276    4.2060    0.0000 H         1 <0>        0.00000
     55 H25        -0.7676   -0.9685    0.0000 H         1 <0>        0.00000
     56 H26        -0.7676   -0.9685    0.0000 H         1 <0>        0.00000
     57 H27         0.2942   -0.0124    0.0000 H         1 <0>        0.00000
     58 H28         0.2942   -0.0124    0.0000 H         1 <0>        0.00000
     59 H29        -0.5126   -0.1839    0.0000 H         1 <0>        0.00000
     60 H30        -0.5126   -0.1839    0.0000 H         1 <0>        0.00000
@<TRIPOS>BOND
     1    1    6 1
     2    1   14 1
     3    2   10 2
     4    3   11 2
     5    4   10 am
     6    4   11 am
     7    4   17 1
     8    5   12 1
     9    5   20 1
    10    5   21 1
    11    6   12 2
    12    7   25 1
    13    7   26 1
    14    7   29 1
    15    8    9 1
    16    8   10 1
    17    8   15 1
    18    9   11 1
    19    9   16 1
    20   12   13 1
    21   13   14 ar
    22   13   18 ar
    23   14   19 ar
    24   15   22 1
    25   16   23 1
    26   17   28 1
    27   18   24 ar
    28   19   27 ar
    29   20   25 1
    30   21   26 1
    31   22   23 1
    32   24   27 ar
    33   28   30 1
    34   29   30 1
    35    9   31 1
    36    8   32 1
    37   15   33 1
    38   15   34 1
    39   16   35 1
    40   16   36 1
    41   17   37 1
    42   17   38 1
    43   18   39 1
    44   19   40 1
    45   20   41 1
    46   20   42 1
    47   21   43 1
    48   21   44 1
    49   22   45 1
    50   22   46 1
    51   23   47 1
    52   23   48 1
    53   24   49 1
    54   25   50 1
    55   25   51 1
    56   26   52 1
    57   26   53 1
    58   27   54 1
    59   28   55 1
    60   28   56 1
    61   29   57 1
    62   29   58 1
    63   30   59 1
    64   30   60 1
@<TRIPOS>SUBSTRUCTURE
     1 <0>         1 GROUP 0 A     ****
@<TRIPOS>MOLECULE
OX1
   38    41     1     0     0
SMALL
NO_CHARGES

@<TRIPOS>ATOM
      1 C1          1.4506   -0.2323    0.0000 C.ar      1 <0>        0.00000
      2 C2          1.1270    1.3856    0.0000 C.ar      1 <0>        0.00000
      3 C3          0.6691    0.0321    0.0000 C.ar      1 <0>        0.00000
      4 C4          2.0703    0.3123    0.0000 C.ar      1 <0>        0.00000
      5 C5          1.9085    1.1213    0.0000 C.ar      1 <0>        0.00000
      6 C6          0.5073    0.8410    0.0000 C.ar      1 <0>        0.00000
      7 C7         -0.0794    0.3790    0.0000 C.3       1 <0>        0.00000
      8 C8         -0.2221    1.1274    0.0000 C.3       1 <0>        0.00000
      9 C9         -0.0917   -0.4459    0.0000 C.3       1 <0>        0.00000
     10 O1          0.0603    1.4176    0.0000 O.3       1 <0>        0.00000
     11 C10        -0.4890    0.3467    0.0000 C.3       1 <0>        0.00000
     12 O2         -0.1844    2.0235    0.0000 O.3       1 <0>        0.00000
     13 C11        -0.9187    0.0201    0.0000 C.ar      1 <0>        0.00000
     14 C12        -2.4494    0.6361    0.0000 C.ar      1 <0>        0.00000
     15 C13        -1.5681   -0.4887    0.0000 C.ar      1 <0>        0.00000
     16 C14        -1.0346    0.8369    0.0000 C.ar      1 <0>        0.00000
     17 C15        -1.7999    1.1449    0.0000 C.ar      1 <0>        0.00000
     18 C16        -2.3335   -0.1807    0.0000 C.ar      1 <0>        0.00000
     19 C17         0.6165   -0.8691    0.0000 C.3       1 <0>        0.00000
     20 C18         0.6042   -1.6940    0.0000 C.2       1 <0>        0.00000
     21 O3          1.3124   -2.1171    0.0000 O.3       1 <0>        0.00000
     22 O4         -0.1164   -2.0958    0.0000 O.2       1 <0>        0.00000
     23 H1          1.4506   -0.2323    0.0000 H         1 <0>        0.00000
     24 H2          1.1270    1.3856    0.0000 H         1 <0>        0.00000
     25 H3          2.0703    0.3123    0.0000 H         1 <0>        0.00000
     26 H4          1.9085    1.1213    0.0000 H         1 <0>        0.00000
     27 H5         -0.0917   -0.4459    0.0000 H         1 <0>        0.00000
     28 H6         -0.0917   -0.4459    0.0000 H         1 <0>        0.00000
     29 H7         -0.4890    0.3467    0.0000 H         1 <0>        0.00000
     30 H8         -0.4890    0.3467    0.0000 H         1 <0>        0.00000
     31 H9         -0.4890    0.3467    0.0000 H         1 <0>        0.00000
     32 H10        -2.4494    0.6361    0.0000 H         1 <0>        0.00000
     33 H11        -1.5681   -0.4887    0.0000 H         1 <0>        0.00000
     34 H12        -1.7999    1.1449    0.0000 H         1 <0>        0.00000
     35 H13        -2.3335   -0.1807    0.0000 H         1 <0>        0.00000
     36 H14         0.6165   -0.8691    0.0000 H         1 <0>        0.00000
     37 H15         0.6165   -0.8691    0.0000 H         1 <0>        0.00000
     38 H16         1.3124   -2.1171    0.0000 H         1 <0>        0.00000
@<TRIPOS>BOND
     1    1    3 ar
     2    1    4 ar
     3    2    5 ar
     4    2    6 ar
     5    3    6 ar
     6    3    7 1
     7    4    5 ar
     8    6    8 1
     9    7    9 1
    10    7   10 1
    11    7   13 1
    12    8   11 1
    13    8   12 1
    14    8   16 1
    15    9   19 1
    16   10   12 1
    17   13   15 ar
    18   13   16 ar
    19   14   17 ar
    20   14   18 ar
    21   15   18 ar
    22   16   17 ar
    23   19   20 1
    24   20   21 1
    25   20   22 2
    26    1   23 1
    27    2   24 1
    28    4   25 1
    29    5   26 1
    30    9   27 1
    31    9   28 1
    32   11   29 1
    33   11   30 1
    34   11   31 1
    35   14   32 1
    36   15   33 1
    37   17   34 1
    38   18   35 1
    39   19   36 1
    40   19   37 1
    41   21   38 1
@<TRIPOS>SUBSTRUCTURE
     1 <0>         1 GROUP 0 A     ****
@<TRIPOS>MOLECULE
*****
   61    65     1     0     0
SMALL
NO_CHARGES

@<TRIPOS>ATOM
      1 C1         -3.2176    1.9800    0.0000 C.ar      1 <0>        0.00000
      2 C2         -3.2176    1.1550    0.0000 C.ar      1 <0>        0.00000
      3 C3         -3.9189    0.7425    0.0000 C.ar      1 <0>        0.00000
      4 C4         -4.6614    1.1550    0.0000 C.ar      1 <0>        0.00000
      5 C5         -4.6614    1.9800    0.0000 C.ar      1 <0>        0.00000
      6 N1         -3.9189    2.3926    0.0000 N.ar      1 <0>        0.00000
      7 C6         -2.5163    2.3926    0.0000 C.ar      1 <0>        0.00000
      8 C7         -1.7738    1.9800    0.0000 C.ar      1 <0>        0.00000
      9 C8         -1.7738    1.1550    0.0000 C.ar      1 <0>        0.00000
     10 C9         -2.5163    0.7425    0.0000 C.ar      1 <0>        0.00000
     11 O1         -1.0725    2.3926    0.0000 O.3       1 <0>        0.00000
     12 C10        -0.3712    1.9800    0.0000 C.3       1 <0>        0.00000
     13 O2         -1.0725    0.7425    0.0000 O.3       1 <0>        0.00000
     14 C11        -0.3712    1.1550    0.0000 C.3       1 <0>        0.00000
     15 O3         -3.9189   -0.0824    0.0000 O.3       1 <0>        0.00000
     16 C12        -3.1763   -0.4950    0.0000 C.ar      1 <0>        0.00000
     17 C13        -3.1763   -1.3201    0.0000 C.ar      1 <0>        0.00000
     18 C14        -2.4750   -1.7326    0.0000 C.ar      1 <0>        0.00000
     19 C15        -1.7738   -1.3201    0.0000 C.ar      1 <0>        0.00000
     20 C16        -1.7738   -0.4537    0.0000 C.ar      1 <0>        0.00000
     21 C17        -2.4750   -0.0412    0.0000 C.ar      1 <0>        0.00000
     22 N2         -1.0313   -1.6913    0.0000 N.am      1 <0>        0.00000
     23 C18        -0.3300   -1.2788    0.0000 C.2       1 <0>        0.00000
     24 C19         0.4125   -1.6913    0.0000 C.3       1 <0>        0.00000
     25 O4         -0.3300   -0.4537    0.0000 O.2       1 <0>        0.00000
     26 C20         1.1138   -1.2375    0.0000 C.2       1 <0>        0.00000
     27 N3          1.8151   -1.6500    0.0000 N.am      1 <0>        0.00000
     28 O5          1.1138   -0.4125    0.0000 O.2       1 <0>        0.00000
     29 C21         2.5163   -1.2375    0.0000 C.ar      1 <0>        0.00000
     30 C22         3.2589   -1.6500    0.0000 C.ar      1 <0>        0.00000
     31 C23         3.9189   -1.1963    0.0000 C.ar      1 <0>        0.00000
     32 C24         3.9189   -0.3713    0.0000 C.ar      1 <0>        0.00000
     33 C25         3.2176    0.0000    0.0000 C.ar      1 <0>        0.00000
     34 C26         2.5163   -0.4125    0.0000 C.ar      1 <0>        0.00000
     35 F1          4.6615    0.0000    0.0000 F         1 <0>        0.00000
     36 C27         0.0000   -2.3926    0.0000 C.3       1 <0>        0.00000
     37 C28         0.8250   -2.3926    0.0000 C.3       1 <0>        0.00000
     38 H1         -4.6614    1.1550    0.0000 H         1 <0>        0.00000
     39 H2         -4.6614    1.9800    0.0000 H         1 <0>        0.00000
     40 H3         -2.5163    2.3926    0.0000 H         1 <0>        0.00000
     41 H4         -2.5163    0.7425    0.0000 H         1 <0>        0.00000
     42 H5         -0.3712    1.9800    0.0000 H         1 <0>        0.00000
     43 H6         -0.3712    1.9800    0.0000 H         1 <0>        0.00000
     44 H7         -0.3712    1.9800    0.0000 H         1 <0>        0.00000
     45 H8         -0.3712    1.1550    0.0000 H         1 <0>        0.00000
     46 H9         -0.3712    1.1550    0.0000 H         1 <0>        0.00000
     47 H10        -0.3712    1.1550    0.0000 H         1 <0>        0.00000
     48 H11        -3.1763   -1.3201    0.0000 H         1 <0>        0.00000
     49 H12        -2.4750   -1.7326    0.0000 H         1 <0>        0.00000
     50 H13        -1.7738   -0.4537    0.0000 H         1 <0>        0.00000
     51 H14        -2.4750   -0.0412    0.0000 H         1 <0>        0.00000
     52 H15        -1.0313   -1.6913    0.0000 H         1 <0>        0.00000
     53 H16         1.8151   -1.6500    0.0000 H         1 <0>        0.00000
     54 H17         3.2589   -1.6500    0.0000 H         1 <0>        0.00000
     55 H18         3.9189   -1.1963    0.0000 H         1 <0>        0.00000
     56 H19         3.2176    0.0000    0.0000 H         1 <0>        0.00000
     57 H20         2.5163   -0.4125    0.0000 H         1 <0>        0.00000
     58 H21         0.0000   -2.3926    0.0000 H         1 <0>        0.00000
     59 H22         0.0000   -2.3926    0.0000 H         1 <0>        0.00000
     60 H23         0.8250   -2.3926    0.0000 H         1 <0>        0.00000
     61 H24         0.8250   -2.3926    0.0000 H         1 <0>        0.00000
@<TRIPOS>BOND
     1    1    2 ar
     2    2    3 ar
     3    3    4 ar
     4    4    5 ar
     5    5    6 ar
     6    1    6 ar
     7    1    7 ar
     8    7    8 ar
     9    8    9 ar
    10    9   10 ar
    11    2   10 ar
    12    8   11 1
    13   11   12 1
    14    9   13 1
    15   13   14 1
    16    3   15 1
    17   15   16 1
    18   16   17 ar
    19   17   18 ar
    20   18   19 ar
    21   19   20 ar
    22   20   21 ar
    23   16   21 ar
    24   19   22 1
    25   22   23 am
    26   23   24 1
    27   23   25 2
    28   24   26 1
    29   26   27 am
    30   26   28 2
    31   27   29 1
    32   29   30 ar
    33   30   31 ar
    34   31   32 ar
    35   32   33 ar
    36   33   34 ar
    37   29   34 ar
    38   32   35 1
    39   36   37 1
    40   24   37 1
    41   24   36 1
    42    4   38 1
    43    5   39 1
    44    7   40 1
    45   10   41 1
    46   12   42 1
    47   12   43 1
    48   12   44 1
    49   14   45 1
    50   14   46 1
    51   14   47 1
    52   17   48 1
    53   18   49 1
    54   20   50 1
    55   21   51 1
    56   22   52 1
    57   27   53 1
    58   30   54 1
    59   31   55 1
    60   33   56 1
    61   34   57 1
    62   36   58 1
    63   36   59 1
    64   37   60 1
    65   37   61 1
@<TRIPOS>SUBSTRUCTURE
     1 <0>         1 GROUP 0 A     ****
@<TRIPOS>MOLECULE
1010
   28    28     1     0     0
SMALL
NO_CHARGES

@<TRIPOS>ATOM
      1 O1          1.6500   -1.6005    0.0000 O.3       1 <0>        0.00000
      2 N1          3.0791    0.8745    0.0000 N.4       1 <0>        0.00000
      3 C1          3.0791    1.6995    0.0000 C.3       1 <0>        0.00000
      4 C2          3.0791    0.0495    0.0000 C.ar      1 <0>        0.00000
      5 C3          3.9041    0.8745    0.0000 C.3       1 <0>        0.00000
      6 C4          2.2540    0.8745    0.0000 C.3       1 <0>        0.00000
      7 C5          3.7935    2.1120    0.0000 C.3       1 <0>        0.00000
      8 C6          2.3645   -0.3630    0.0000 C.ar      1 <0>        0.00000
      9 C7          3.7935   -0.3630    0.0000 C.ar      1 <0>        0.00000
     10 C8          2.3645   -1.1880    0.0000 C.ar      1 <0>        0.00000
     11 C9          3.7935   -1.1880    0.0000 C.ar      1 <0>        0.00000
     12 C10         3.0791   -1.6005    0.0000 C.ar      1 <0>        0.00000
     13 H1          1.6500   -1.6005    0.0000 H         1 <0>        0.00000
     14 H2          3.0791    1.6995    0.0000 H         1 <0>        0.00000
     15 H3          3.0791    1.6995    0.0000 H         1 <0>        0.00000
     16 H4          3.9041    0.8745    0.0000 H         1 <0>        0.00000
     17 H5          3.9041    0.8745    0.0000 H         1 <0>        0.00000
     18 H6          3.9041    0.8745    0.0000 H         1 <0>        0.00000
     19 H7          2.2540    0.8745    0.0000 H         1 <0>        0.00000
     20 H8          2.2540    0.8745    0.0000 H         1 <0>        0.00000
     21 H9          2.2540    0.8745    0.0000 H         1 <0>        0.00000
     22 H10         3.7935    2.1120    0.0000 H         1 <0>        0.00000
     23 H11         3.7935    2.1120    0.0000 H         1 <0>        0.00000
     24 H12         3.7935    2.1120    0.0000 H         1 <0>        0.00000
     25 H13         2.3645   -0.3630    0.0000 H         1 <0>        0.00000
     26 H14         3.7935   -0.3630    0.0000 H         1 <0>        0.00000
     27 H15         3.7935   -1.1880    0.0000 H         1 <0>        0.00000
     28 H16         3.0791   -1.6005    0.0000 H         1 <0>        0.00000
@<TRIPOS>BOND
     1    1   10 1
     2    2    3 1
     3    2    4 1
     4    2    5 1
     5    2    6 1
     6    3    7 1
     7    4    8 ar
     8    4    9 ar
     9    8   10 ar
    10    9   11 ar
    11   10   12 ar
    12   11   12 ar
    13    1   13 1
    14    3   14 1
    15    3   15 1
    16    5   16 1
    17    5   17 1
    18    5   18 1
    19    6   19 1
    20    6   20 1
    21    6   21 1
    22    7   22 1
    23    7   23 1
    24    7   24 1
    25    8   25 1
    26    9   26 1
    27   11   27 1
    28   12   28 1
@<TRIPOS>SUBSTRUCTURE
     1 <0>         1 GROUP 0 A     ****
@<TRIPOS>MOLECULE
*****
   10     9     1     0     0
SMALL
NO_CHARGES

@<TRIPOS>ATOM
      1 C1          2.0625   -0.7145    0.0000 C.3       1 <0>        0.00000
      2 C2          1.6500    0.0000    0.0000 C.3       1 <0>        0.00000
      3 N1          0.8250    0.0000    0.0000 N.1       1 <0>        0.00000
      4 C3          0.0000    0.0000    0.0000 C.1       1 <0>        0.00000
      5 H1          2.0625   -0.7145    0.0000 H         1 <0>        0.00000
      6 H2          2.0625   -0.7145    0.0000 H         1 <0>        0.00000
      7 H3          2.0625   -0.7145    0.0000 H         1 <0>        0.00000
      8 H4          1.6500    0.0000    0.0000 H         1 <0>        0.00000
      9 H5          1.6500    0.0000    0.0000 H         1 <0>        0.00000
     10 H6          0.0000    0.0000    0.0000 H         1 <0>        0.00000
@<TRIPOS>BOND
     1    1    2 1
     2    2    3 1
     3    3    4 3
     4    1    5 1
     5    1    6 1
     6    1    7 1
     7    2    8 1
     8    2    9 1
     9    4   10 1
@<TRIPOS>SUBSTRUCTURE
     1 <0>         1 GROUP 0 A     ****
@<TRIPOS>MOLECULE
CB3
   58    60     1     0     0
SMALL
NO_CHARGES

@<TRIPOS>ATOM
      1 N1         -4.5072   -1.5584    0.0000 N.pl3     1 <0>        0.00000
      2 C1         -5.2217   -1.1459    0.0000 C.ar      1 <0>        0.00000
      3 N2         -5.9361   -1.5584    0.0000 N.pl3     1 <0>        0.00000
      4 N3         -5.2217   -0.3209    0.0000 N.ar      1 <0>        0.00000
      5 C2         -4.5072    0.0916    0.0000 C.ar      1 <0>        0.00000
      6 O1         -4.5072    0.9166    0.0000 O.2       1 <0>        0.00000
      7 C3         -3.7927   -0.3209    0.0000 C.ar      1 <0>        0.00000
      8 C4         -3.0782    0.0916    0.0000 C.ar      1 <0>        0.00000
      9 C5         -2.3638   -0.3209    0.0000 C.ar      1 <0>        0.00000
     10 C6         -2.3638   -1.1459    0.0000 C.ar      1 <0>        0.00000
     11 C7         -3.0782   -1.5584    0.0000 C.ar      1 <0>        0.00000
     12 C8         -3.7927   -1.1459    0.0000 C.ar      1 <0>        0.00000
     13 C9         -1.6493    0.0916    0.0000 C.3       1 <0>        0.00000
     14 N4         -0.9348   -0.3209    0.0000 N.pl3     1 <0>        0.00000
     15 C10         1.2086    0.9166    0.0000 C.ar      1 <0>        0.00000
     16 C11         1.2086    0.0916    0.0000 C.ar      1 <0>        0.00000
     17 C12         0.4941   -0.3209    0.0000 C.ar      1 <0>        0.00000
     18 C13        -0.2204    0.0916    0.0000 C.ar      1 <0>        0.00000
     19 C14        -0.2204    0.9166    0.0000 C.ar      1 <0>        0.00000
     20 C15         0.4941    1.3291    0.0000 C.ar      1 <0>        0.00000
     21 C16         1.9231    1.3291    0.0000 C.2       1 <0>        0.00000
     22 O2          1.9231    2.1541    0.0000 O.2       1 <0>        0.00000
     23 N5          2.6375    0.9166    0.0000 N.am      1 <0>        0.00000
     24 C17         3.3520    1.3291    0.0000 C.3       1 <0>        0.00000
     25 C18         4.0665    0.9166    0.0000 C.3       1 <0>        0.00000
     26 C19         4.7809    1.3291    0.0000 C.3       1 <0>        0.00000
     27 C20         5.4954    0.9166    0.0000 C.2       1 <0>        0.00000
     28 O3          6.2099    1.3291    0.0000 O.2       1 <0>        0.00000
     29 O4          5.4954    0.0916    0.0000 O.3       1 <0>        0.00000
     30 C21         3.3520    2.1541    0.0000 C.2       1 <0>        0.00000
     31 O5          4.0665    2.5666    0.0000 O.2       1 <0>        0.00000
     32 O6          2.6375    2.5666    0.0000 O.3       1 <0>        0.00000
     33 C22        -0.9348   -1.1459    0.0000 C.3       1 <0>        0.00000
     34 C23        -1.6493   -1.5584    0.0000 C.1       1 <0>        0.00000
     35 C24        -2.3638   -1.9709    0.0000 C.1       1 <0>        0.00000
     36 H1          3.3520    0.7451    0.0000 H         1 <0>        0.00000
     37 H2         -4.5072   -1.5584    0.0000 H         1 <0>        0.00000
     38 H3         -5.9361   -1.5584    0.0000 H         1 <0>        0.00000
     39 H4         -5.9361   -1.5584    0.0000 H         1 <0>        0.00000
     40 H5         -3.0782    0.0916    0.0000 H         1 <0>        0.00000
     41 H6         -2.3638   -1.1459    0.0000 H         1 <0>        0.00000
     42 H7         -3.0782   -1.5584    0.0000 H         1 <0>        0.00000
     43 H8         -1.6493    0.0916    0.0000 H         1 <0>        0.00000
     44 H9         -1.6493    0.0916    0.0000 H         1 <0>        0.00000
     45 H10         1.2086    0.0916    0.0000 H         1 <0>        0.00000
     46 H11         0.4941   -0.3209    0.0000 H         1 <0>        0.00000
     47 H12        -0.2204    0.9166    0.0000 H         1 <0>        0.00000
     48 H13         0.4941    1.3291    0.0000 H         1 <0>        0.00000
     49 H14         2.6375    0.9166    0.0000 H         1 <0>        0.00000
     50 H15         4.0665    0.9166    0.0000 H         1 <0>        0.00000
     51 H16         4.0665    0.9166    0.0000 H         1 <0>        0.00000
     52 H17         4.7809    1.3291    0.0000 H         1 <0>        0.00000
     53 H18         4.7809    1.3291    0.0000 H         1 <0>        0.00000
     54 H19         5.4954    0.0916    0.0000 H         1 <0>        0.00000
     55 H20         2.6375    2.5666    0.0000 H         1 <0>        0.00000
     56 H21        -0.9348   -1.1459    0.0000 H         1 <0>        0.00000
     57 H22        -0.9348   -1.1459    0.0000 H         1 <0>        0.00000
     58 H23        -2.3638   -1.9709    0.0000 H         1 <0>        0.00000
@<TRIPOS>BOND
     1    1    2 1
     2    1   12 1
     3    2    3 1
     4    2    4 2
     5    4    5 1
     6    5    6 2
     7    5    7 1
     8    7    8 ar
     9    7   12 ar
    10    8    9 ar
    11    9   10 ar
    12    9   13 1
    13   10   11 ar
    14   11   12 ar
    15   13   14 1
    16   14   18 1
    17   14   33 1
    18   15   16 ar
    19   15   20 ar
    20   15   21 1
    21   16   17 ar
    22   17   18 ar
    23   18   19 ar
    24   19   20 ar
    25   21   22 2
    26   21   23 am
    27   23   24 1
    28   24   25 1
    29   24   30 1
    30   24   36 1
    31   25   26 1
    32   26   27 1
    33   27   28 2
    34   27   29 1
    35   30   31 2
    36   30   32 1
    37   33   34 1
    38   34   35 3
    39    1   37 1
    40    3   38 1
    41    3   39 1
    42    8   40 1
    43   10   41 1
    44   11   42 1
    45   13   43 1
    46   13   44 1
    47   16   45 1
    48   17   46 1
    49   19   47 1
    50   20   48 1
    51   23   49 1
    52   25   50 1
    53   25   51 1
    54   26   52 1
    55   26   53 1
    56   29   54 1
    57   32   55 1
    58   33   56 1
    59   33   57 1
    60   35   58 1
@<TRIPOS>SUBSTRUCTURE
     1 <0>         1 GROUP 0 A     ****
@<TRIPOS>MOLECULE
*****
   30    29     1     0     0
SMALL
NO_CHARGES

@<TRIPOS>ATOM
      1 N1          7.2849    3.3809    0.0000 N.3       1 <0>        0.00000
      2 C1          7.2849    2.5559    0.0000 C.3       1 <0>        0.00000
      3 C2          6.5704    2.1434    0.0000 C.3       1 <0>        0.00000
      4 C3          5.8559    2.5559    0.0000 C.3       1 <0>        0.00000
      5 C4          5.1414    2.1434    0.0000 C.3       1 <0>        0.00000
      6 C5          4.4270    2.5559    0.0000 C.3       1 <0>        0.00000
      7 N2          3.7125    2.1434    0.0000 N.pl3     1 <0>        0.00000
      8 C6          2.9980    2.5559    0.0000 C.2       1 <0>        0.00000
      9 N3          2.2836    2.1434    0.0000 N.4       1 <0>        0.00000
     10 N4          2.9980    3.3809    0.0000 N.2       1 <0>        0.00000
     11 C7          7.9993    2.1434    0.0000 C.2       1 <0>        0.00000
     12 O1          8.7138    2.5559    0.0000 O.3       1 <0>        0.00000
     13 O2          7.9993    1.3184    0.0000 O.2       1 <0>        0.00000
     14 H1          7.2849    3.3809    0.0000 H         1 <0>        0.00000
     15 H2          7.2849    3.3809    0.0000 H         1 <0>        0.00000
     16 H3          7.2849    2.5559    0.0000 H         1 <0>        0.00000
     17 H4          6.5704    2.1434    0.0000 H         1 <0>        0.00000
     18 H5          6.5704    2.1434    0.0000 H         1 <0>        0.00000
     19 H6          5.8559    2.5559    0.0000 H         1 <0>        0.00000
     20 H7          5.8559    2.5559    0.0000 H         1 <0>        0.00000
     21 H8          5.1414    2.1434    0.0000 H         1 <0>        0.00000
     22 H9          5.1414    2.1434    0.0000 H         1 <0>        0.00000
     23 H10         4.4270    2.5559    0.0000 H         1 <0>        0.00000
     24 H11         4.4270    2.5559    0.0000 H         1 <0>        0.00000
     25 H12         3.7125    2.1434    0.0000 H         1 <0>        0.00000
     26 H13         2.2836    2.1434    0.0000 H         1 <0>        0.00000
     27 H14         2.2836    2.1434    0.0000 H         1 <0>        0.00000
     28 H15         2.2836    2.1434    0.0000 H         1 <0>        0.00000
     29 H16         2.9980    3.3809    0.0000 H         1 <0>        0.00000
     30 H17         8.7138    2.5559    0.0000 H         1 <0>        0.00000
@<TRIPOS>BOND
     1    1    2 1
     2    2    3 1
     3    3    4 1
     4    4    5 1
     5    5    6 1
     6    6    7 1
     7    7    8 1
     8    8    9 1
     9    8   10 2
    10    2   11 1
    11   11   12 1
    12   11   13 2
    13    1   14 1
    14    1   15 1
    15    2   16 1
    16    3   17 1
    17    3   18 1
    18    4   19 1
    19    4   20 1
    20    5   21 1
    21    5   22 1
    22    6   23 1
    23    6   24 1
    24    7   25 1
    25    9   26 1
    26    9   27 1
    27    9   28 1
    28   10   29 1
    29   12   30 1
@<TRIPOS>SUBSTRUCTURE
     1 <0>         1 GROUP 0 A     ****
@<TRIPOS>MOLECULE
4575
   59    63     1     0     0
SMALL
NO_CHARGES

@<TRIPOS>ATOM
      1 O1          8.6440    1.5551    0.0000 O.3       1 <0>        0.00000
      2 O2          3.6676   -1.9997    0.0000 O.3       1 <0>        0.00000
      3 C1          8.1169    0.5186    0.0000 C.3       1 <0>        0.00000
      4 C2          8.1169   -0.3064    0.0000 C.3       1 <0>        0.00000
      5 C3          7.4024   -0.7189    0.0000 C.3       1 <0>        0.00000
      6 C4          8.8976    0.7700    0.0000 C.3       1 <0>        0.00000
      7 C5          6.6880   -0.3064    0.0000 C.3       1 <0>        0.00000
      8 C6          7.4024    0.9311    0.0000 C.3       1 <0>        0.00000
      9 C7          8.8976   -0.5579    0.0000 C.3       1 <0>        0.00000
     10 C8          6.6880    0.5186    0.0000 C.3       1 <0>        0.00000
     11 C9          9.3791    0.1061    0.0000 C.3       1 <0>        0.00000
     12 C10         7.4157   -1.5783    0.0000 C.3       1 <0>        0.00000
     13 C11         8.1169    1.3436    0.0000 C.3       1 <0>        0.00000
     14 C12         5.9372   -0.7246    0.0000 C.ar      1 <0>        0.00000
     15 C13         6.6748   -2.0136    0.0000 C.3       1 <0>        0.00000
     16 C14         5.9306   -1.5839    0.0000 C.ar      1 <0>        0.00000
     17 C15         9.5659    1.2538    0.0000 C.1       1 <0>        0.00000
     18 C16         5.1726   -0.2592    0.0000 C.ar      1 <0>        0.00000
     19 C17         5.1588   -2.0375    0.0000 C.ar      1 <0>        0.00000
     20 C18         4.3906   -0.6948    0.0000 C.ar      1 <0>        0.00000
     21 C19         4.3836   -1.5899    0.0000 C.ar      1 <0>        0.00000
     22 C20        10.2341    1.7376    0.0000 C.1       1 <0>        0.00000
     23 C21         2.9547   -1.5844    0.0000 C.3       1 <0>        0.00000
     24 C22         2.8716   -0.7636    0.0000 C.3       1 <0>        0.00000
     25 C23         2.1997   -1.9171    0.0000 C.3       1 <0>        0.00000
     26 C24         2.0653   -0.5889    0.0000 C.3       1 <0>        0.00000
     27 C25         1.6500   -1.3018    0.0000 C.3       1 <0>        0.00000
     28 H1          8.1868   -0.9628    0.0000 H         1 <0>        0.00000
     29 H2          7.9766   -1.0445    0.0000 H         1 <0>        0.00000
     30 H3          7.2595    0.0236    0.0000 H         1 <0>        0.00000
     31 H4          8.6440    1.5551    0.0000 H         1 <0>        0.00000
     32 H5          7.4024    0.9311    0.0000 H         1 <0>        0.00000
     33 H6          7.4024    0.9311    0.0000 H         1 <0>        0.00000
     34 H7          8.8976   -0.5579    0.0000 H         1 <0>        0.00000
     35 H8          8.8976   -0.5579    0.0000 H         1 <0>        0.00000
     36 H9          6.6880    0.5186    0.0000 H         1 <0>        0.00000
     37 H10         6.6880    0.5186    0.0000 H         1 <0>        0.00000
     38 H11         9.3791    0.1061    0.0000 H         1 <0>        0.00000
     39 H12         9.3791    0.1061    0.0000 H         1 <0>        0.00000
     40 H13         7.4157   -1.5783    0.0000 H         1 <0>        0.00000
     41 H14         7.4157   -1.5783    0.0000 H         1 <0>        0.00000
     42 H15         8.1169    1.3436    0.0000 H         1 <0>        0.00000
     43 H16         8.1169    1.3436    0.0000 H         1 <0>        0.00000
     44 H17         8.1169    1.3436    0.0000 H         1 <0>        0.00000
     45 H18         6.6748   -2.0136    0.0000 H         1 <0>        0.00000
     46 H19         6.6748   -2.0136    0.0000 H         1 <0>        0.00000
     47 H20         5.1726   -0.2592    0.0000 H         1 <0>        0.00000
     48 H21         5.1588   -2.0375    0.0000 H         1 <0>        0.00000
     49 H22         4.3906   -0.6948    0.0000 H         1 <0>        0.00000
     50 H23        10.2341    1.7376    0.0000 H         1 <0>        0.00000
     51 H24         2.9547   -1.5844    0.0000 H         1 <0>        0.00000
     52 H25         2.8716   -0.7636    0.0000 H         1 <0>        0.00000
     53 H26         2.8716   -0.7636    0.0000 H         1 <0>        0.00000
     54 H27         2.1997   -1.9171    0.0000 H         1 <0>        0.00000
     55 H28         2.1997   -1.9171    0.0000 H         1 <0>        0.00000
     56 H29         2.0653   -0.5889    0.0000 H         1 <0>        0.00000
     57 H30         2.0653   -0.5889    0.0000 H         1 <0>        0.00000
     58 H31         1.6500   -1.3018    0.0000 H         1 <0>        0.00000
     59 H32         1.6500   -1.3018    0.0000 H         1 <0>        0.00000
@<TRIPOS>BOND
     1    1    6 1
     2    2   21 1
     3    2   23 1
     4    3    4 1
     5    3    6 1
     6    3    8 1
     7    3   13 1
     8    4    5 1
     9    4    9 1
    10    4   28 1
    11    5    7 1
    12    5   12 1
    13    5   29 1
    14    6   11 1
    15    6   17 1
    16    7   10 1
    17    7   14 1
    18    7   30 1
    19    8   10 1
    20    9   11 1
    21   12   15 1
    22   14   16 ar
    23   14   18 ar
    24   15   16 1
    25   16   19 ar
    26   17   22 3
    27   18   20 ar
    28   19   21 ar
    29   20   21 ar
    30   23   24 1
    31   23   25 1
    32   24   26 1
    33   25   27 1
    34   26   27 1
    35    1   31 1
    36    8   32 1
    37    8   33 1
    38    9   34 1
    39    9   35 1
    40   10   36 1
    41   10   37 1
    42   11   38 1
    43   11   39 1
    44   12   40 1
    45   12   41 1
    46   13   42 1
    47   13   43 1
    48   13   44 1
    49   15   45 1
    50   15   46 1
    51   18   47 1
    52   19   48 1
    53   20   49 1
    54   22   50 1
    55   23   51 1
    56   24   52 1
    57   24   53 1
    58   25   54 1
    59   25   55 1
    60   26   56 1
    61   26   57 1
    62   27   58 1
    63   27   59 1
@<TRIPOS>SUBSTRUCTURE
     1 <0>         1 GROUP 0 A     ****
@<TRIPOS>MOLECULE
*****
   36    38     1     0     0
SMALL
NO_CHARGES

@<TRIPOS>ATOM
      1 C1          5.5156    1.7457    0.0000 C.3       1 <0>        0.00000
      2 C2          2.8579   -1.6500    0.0000 C.3       1 <0>        0.00000
      3 C3         -0.7145   -0.4125    0.0000 C.ar      1 <0>        0.00000
      4 C4         -0.7145   -1.2375    0.0000 C.ar      1 <0>        0.00000
      5 C5          0.0000    0.0000    0.0000 C.ar      1 <0>        0.00000
      6 C6          0.0000   -1.6500    0.0000 C.ar      1 <0>        0.00000
      7 C7          4.3731    0.8205    0.0000 C.ar      1 <0>        0.00000
      8 C8          5.1800    0.9920    0.0000 C.ar      1 <0>        0.00000
      9 C9          0.7145   -0.4125    0.0000 C.ar      1 <0>        0.00000
     10 C10         0.7145   -1.2375    0.0000 C.ar      1 <0>        0.00000
     11 C11         4.2868   -0.0000    0.0000 C.ar      1 <0>        0.00000
     12 C12         2.1434   -0.4125    0.0000 C.ar      1 <0>        0.00000
     13 C13         1.4289   -0.0000    0.0000 C.ar      1 <0>        0.00000
     14 C14         2.8579   -0.0000    0.0000 C.2       1 <0>        0.00000
     15 N1          3.5724   -0.4125    0.0000 N.2       1 <0>        0.00000
     16 N2          5.0405   -0.3356    0.0000 N.pl3     1 <0>        0.00000
     17 N3          2.1434   -1.2375    0.0000 N.pl3     1 <0>        0.00000
     18 O1          1.4289    0.8250    0.0000 O.3       1 <0>        0.00000
     19 O2          2.8579    0.8250    0.0000 O.2       1 <0>        0.00000
     20 O3          1.0416   -2.3784    0.0000 O.2       1 <0>        0.00000
     21 O4          1.8163   -2.3784    0.0000 O.2       1 <0>        0.00000
     22 O5          5.5925    0.2775    0.0000 O.3       1 <0>        0.00000
     23 S1          1.4289   -1.6500    0.0000 S.o2      1 <0>        0.00000
     24 H1          5.5156    1.7457    0.0000 H         1 <0>        0.00000
     25 H2          5.5156    1.7457    0.0000 H         1 <0>        0.00000
     26 H3          5.5156    1.7457    0.0000 H         1 <0>        0.00000
     27 H4          2.8579   -1.6500    0.0000 H         1 <0>        0.00000
     28 H5          2.8579   -1.6500    0.0000 H         1 <0>        0.00000
     29 H6          2.8579   -1.6500    0.0000 H         1 <0>        0.00000
     30 H7         -0.7145   -0.4125    0.0000 H         1 <0>        0.00000
     31 H8         -0.7145   -1.2375    0.0000 H         1 <0>        0.00000
     32 H9          0.0000    0.0000    0.0000 H         1 <0>        0.00000
     33 H10         0.0000   -1.6500    0.0000 H         1 <0>        0.00000
     34 H11         4.3731    0.8205    0.0000 H         1 <0>        0.00000
     35 H12         5.0405   -0.3356    0.0000 H         1 <0>        0.00000
     36 H13         1.4289    0.8250    0.0000 H         1 <0>        0.00000
@<TRIPOS>BOND
     1    3    4 ar
     2    3    5 ar
     3    4    6 ar
     4    1    8 1
     5    7    8 2
     6    5    9 ar
     7    6   10 ar
     8    9   10 ar
     9    7   11 1
    10    9   13 1
    11   12   13 2
    12   12   14 1
    13   11   15 2
    14   14   15 1
    15   11   16 1
    16    2   17 1
    17   12   17 1
    18   13   18 1
    19   14   19 2
    20    8   22 1
    21   16   22 1
    22   10   23 1
    23   17   23 1
    24   20   23 2
    25   21   23 2
    26    1   24 1
    27    1   25 1
    28    1   26 1
    29    2   27 1
    30    2   28 1
    31    2   29 1
    32    3   30 1
    33    4   31 1
    34    5   32 1
    35    6   33 1
    36    7   34 1
    37   16   35 1
    38   18   36 1
@<TRIPOS>SUBSTRUCTURE
     1 <0>         1 GROUP 0 A     ****
@<TRIPOS>MOLECULE
*****
   55    59     1     0     0
SMALL
NO_CHARGES

@<TRIPOS>ATOM
      1 O1         -1.0700   -2.0569    0.0000 O.3       1 <0>        0.00000
      2 O2         -1.2415   -1.2500    0.0000 O.3       1 <0>        0.00000
      3 C1         -0.6284   -0.6979    0.0000 C.3       1 <0>        0.00000
      4 C2         -1.2415   -0.1459    0.0000 C.3       1 <0>        0.00000
      5 C3         -2.0261   -0.4008    0.0000 C.ar      1 <0>        0.00000
      6 C4         -2.1977   -1.2078    0.0000 C.ar      1 <0>        0.00000
      7 C5         -2.9823   -1.4628    0.0000 C.ar      1 <0>        0.00000
      8 C6         -3.5954   -0.9107    0.0000 C.ar      1 <0>        0.00000
      9 O3         -4.3800   -1.1657    0.0000 O.3       1 <0>        0.00000
     10 C7         -3.4239   -0.1038    0.0000 C.ar      1 <0>        0.00000
     11 C8         -2.6392    0.1512    0.0000 C.ar      1 <0>        0.00000
     12 N1         -0.1435   -1.3654    0.0000 N.2       1 <0>        0.00000
     13 C9          0.6411   -1.1104    0.0000 C.ar      1 <0>        0.00000
     14 N2          0.6411   -0.2854    0.0000 N.am      1 <0>        0.00000
     15 C10         1.3556    0.1271    0.0000 C.ar      1 <0>        0.00000
     16 C11         2.0701   -0.2854    0.0000 C.ar      1 <0>        0.00000
     17 N3          2.0701   -1.1104    0.0000 N.ar      1 <0>        0.00000
     18 C12         1.3556   -1.5229    0.0000 C.ar      1 <0>        0.00000
     19 C13         1.3556   -2.3479    0.0000 C.3       1 <0>        0.00000
     20 C14         0.6411   -2.7604    0.0000 C.ar      1 <0>        0.00000
     21 C15         0.6411   -3.5854    0.0000 C.ar      1 <0>        0.00000
     22 C16        -0.0734   -3.9979    0.0000 C.ar      1 <0>        0.00000
     23 C17        -0.7878   -3.5854    0.0000 C.ar      1 <0>        0.00000
     24 C18        -0.7878   -2.7604    0.0000 C.ar      1 <0>        0.00000
     25 C19        -0.0734   -2.3479    0.0000 C.ar      1 <0>        0.00000
     26 C20         2.7845    0.1271    0.0000 C.ar      1 <0>        0.00000
     27 C21         2.7845    0.9521    0.0000 C.ar      1 <0>        0.00000
     28 C22         3.4990    1.3646    0.0000 C.ar      1 <0>        0.00000
     29 C23         4.2135    0.9521    0.0000 C.ar      1 <0>        0.00000
     30 O4          4.9279    1.3646    0.0000 O.3       1 <0>        0.00000
     31 C24         4.2135    0.1271    0.0000 C.ar      1 <0>        0.00000
     32 C25         3.4990   -0.2854    0.0000 C.ar      1 <0>        0.00000
     33 C26        -0.1435   -0.0305    0.0000 C.2       1 <0>        0.00000
     34 O5         -0.3984    0.7541    0.0000 O.2       1 <0>        0.00000
     35 H1         -1.0700   -2.0569    0.0000 H         1 <0>        0.00000
     36 H2         -1.2415   -0.1459    0.0000 H         1 <0>        0.00000
     37 H3         -1.2415   -0.1459    0.0000 H         1 <0>        0.00000
     38 H4         -2.1977   -1.2078    0.0000 H         1 <0>        0.00000
     39 H5         -2.9823   -1.4628    0.0000 H         1 <0>        0.00000
     40 H6         -4.3800   -1.1657    0.0000 H         1 <0>        0.00000
     41 H7         -3.4239   -0.1038    0.0000 H         1 <0>        0.00000
     42 H8         -2.6392    0.1512    0.0000 H         1 <0>        0.00000
     43 H9          1.3556    0.1271    0.0000 H         1 <0>        0.00000
     44 H10         1.3556   -2.3479    0.0000 H         1 <0>        0.00000
     45 H11         1.3556   -2.3479    0.0000 H         1 <0>        0.00000
     46 H12         0.6411   -3.5854    0.0000 H         1 <0>        0.00000
     47 H13        -0.0734   -3.9979    0.0000 H         1 <0>        0.00000
     48 H14        -0.7878   -3.5854    0.0000 H         1 <0>        0.00000
     49 H15        -0.7878   -2.7604    0.0000 H         1 <0>        0.00000
     50 H16        -0.0734   -2.3479    0.0000 H         1 <0>        0.00000
     51 H17         2.7845    0.9521    0.0000 H         1 <0>        0.00000
     52 H18         3.4990    1.3646    0.0000 H         1 <0>        0.00000
     53 H19         4.9279    1.3646    0.0000 H         1 <0>        0.00000
     54 H20         4.2135    0.1271    0.0000 H         1 <0>        0.00000
     55 H21         3.4990   -0.2854    0.0000 H         1 <0>        0.00000
@<TRIPOS>BOND
     1    1    2 1
     2    2    3 1
     3    3    4 1
     4    4    5 1
     5    5    6 ar
     6    6    7 ar
     7    7    8 ar
     8    8    9 1
     9    8   10 ar
    10   10   11 ar
    11    5   11 ar
    12    3   12 1
    13   12   13 2
    14   13   14 1
    15   14   15 1
    16   15   16 2
    17   16   17 1
    18   17   18 2
    19   13   18 1
    20   18   19 1
    21   19   20 1
    22   20   21 ar
    23   21   22 ar
    24   22   23 ar
    25   23   24 ar
    26   24   25 ar
    27   20   25 ar
    28   16   26 1
    29   26   27 ar
    30   27   28 ar
    31   28   29 ar
    32   29   30 1
    33   29   31 ar
    34   31   32 ar
    35   26   32 ar
    36   14   33 am
    37    3   33 1
    38   33   34 2
    39    1   35 1
    40    4   36 1
    41    4   37 1
    42    6   38 1
    43    7   39 1
    44    9   40 1
    45   10   41 1
    46   11   42 1
    47   15   43 1
    48   19   44 1
    49   19   45 1
    50   21   46 1
    51   22   47 1
    52   23   48 1
    53   24   49 1
    54   25   50 1
    55   27   51 1
    56   28   52 1
    57   30   53 1
    58   31   54 1
    59   32   55 1
@<TRIPOS>SUBSTRUCTURE
     1 <0>         1 GROUP 0 A     ****
@<TRIPOS>MOLECULE
*****
   47    50     1     0     0
SMALL
NO_CHARGES

@<TRIPOS>ATOM
      1 C1         16.4957  -10.5233    0.0000 C.3       1 <0>        0.00000
      2 C2         15.7811  -10.9341    0.0000 C.3       1 <0>        0.00000
      3 C3         17.2171  -10.9410    0.0000 C.3       1 <0>        0.00000
      4 C4         16.4992   -9.7017    0.0000 C.3       1 <0>        0.00000
      5 O1         15.5532  -10.4473    0.0000 O.3       1 <0>        0.00000
      6 O2         15.0078  -10.6303    0.0000 O.3       1 <0>        0.00000
      7 O3         15.7846  -11.7695    0.0000 O.3       1 <0>        0.00000
      8 C5         17.2171  -11.7695    0.0000 C.3       1 <0>        0.00000
      9 C6         17.9282  -10.5267    0.0000 C.3       1 <0>        0.00000
     10 C7         17.2171   -9.2874    0.0000 C.3       1 <0>        0.00000
     11 C8         16.0573   -9.0942    0.0000 C.3       1 <0>        0.00000
     12 O4         15.5567   -9.6223    0.0000 O.3       1 <0>        0.00000
     13 C9         14.7627   -9.8397    0.0000 C.3       1 <0>        0.00000
     14 C10        16.4992  -12.1837    0.0000 C.3       1 <0>        0.00000
     15 C11        17.9317  -12.1803    0.0000 C.3       1 <0>        0.00000
     16 C12        17.9282   -9.7017    0.0000 C.3       1 <0>        0.00000
     17 C13        17.2171   -8.4625    0.0000 C.3       1 <0>        0.00000
     18 C14        15.2288   -9.0769    0.0000 C.3       1 <0>        0.00000
     19 C15        13.9446   -9.8397    0.0000 C.3       1 <0>        0.00000
     20 O5         16.5026  -13.0087    0.0000 O.3       1 <0>        0.00000
     21 H1         15.0596  -11.3414    0.0000 H         1 <0>        0.00000
     22 H2         17.9248  -11.3518    0.0000 H         1 <0>        0.00000
     23 H3         16.4957   -8.8766    0.0000 H         1 <0>        0.00000
     24 C16        15.7806  -13.4294    0.0000 C.3       1 <0>        0.00000
     25 H4         17.2171  -11.7695    0.0000 H         1 <0>        0.00000
     26 H5         17.9282  -10.5267    0.0000 H         1 <0>        0.00000
     27 H6         17.9282  -10.5267    0.0000 H         1 <0>        0.00000
     28 H7         17.2171   -9.2874    0.0000 H         1 <0>        0.00000
     29 H8         16.0573   -9.0942    0.0000 H         1 <0>        0.00000
     30 H9         16.0573   -9.0942    0.0000 H         1 <0>        0.00000
     31 H10        16.4992  -12.1837    0.0000 H         1 <0>        0.00000
     32 H11        17.9317  -12.1803    0.0000 H         1 <0>        0.00000
     33 H12        17.9317  -12.1803    0.0000 H         1 <0>        0.00000
     34 H13        17.9317  -12.1803    0.0000 H         1 <0>        0.00000
     35 H14        17.9282   -9.7017    0.0000 H         1 <0>        0.00000
     36 H15        17.9282   -9.7017    0.0000 H         1 <0>        0.00000
     37 H16        17.2171   -8.4625    0.0000 H         1 <0>        0.00000
     38 H17        17.2171   -8.4625    0.0000 H         1 <0>        0.00000
     39 H18        17.2171   -8.4625    0.0000 H         1 <0>        0.00000
     40 H19        15.2288   -9.0769    0.0000 H         1 <0>        0.00000
     41 H20        15.2288   -9.0769    0.0000 H         1 <0>        0.00000
     42 H21        13.9446   -9.8397    0.0000 H         1 <0>        0.00000
     43 H22        13.9446   -9.8397    0.0000 H         1 <0>        0.00000
     44 H23        13.9446   -9.8397    0.0000 H         1 <0>        0.00000
     45 H24        15.7806  -13.4294    0.0000 H         1 <0>        0.00000
     46 H25        15.7806  -13.4294    0.0000 H         1 <0>        0.00000
     47 H26        15.7806  -13.4294    0.0000 H         1 <0>        0.00000
@<TRIPOS>BOND
     1    1    2 1
     2    1    3 1
     3    1    4 1
     4    1    5 1
     5    2    6 1
     6    2    7 1
     7    3    8 1
     8    3    9 1
     9    4   10 1
    10    4   11 1
    11    5   12 1
    12    6   13 1
    13    7   14 1
    14    8   15 1
    15    9   16 1
    16   10   17 1
    17   11   18 1
    18   13   19 1
    19   14   20 1
    20    8   14 1
    21   10   16 1
    22   12   13 1
    23   13   18 1
    24    2   21 1
    25    3   22 1
    26    4   23 1
    27   20   24 1
    28    8   25 1
    29    9   26 1
    30    9   27 1
    31   10   28 1
    32   11   29 1
    33   11   30 1
    34   14   31 1
    35   15   32 1
    36   15   33 1
    37   15   34 1
    38   16   35 1
    39   16   36 1
    40   17   37 1
    41   17   38 1
    42   17   39 1
    43   18   40 1
    44   18   41 1
    45   19   42 1
    46   19   43 1
    47   19   44 1
    48   24   45 1
    49   24   46 1
    50   24   47 1
@<TRIPOS>SUBSTRUCTURE
     1 <0>         1 GROUP 0 A     ****
@<TRIPOS>MOLECULE
*****
   23    25     1     0     0
SMALL
NO_CHARGES

@<TRIPOS>ATOM
      1 S1          0.7145    3.0151    0.0000 S.2       1 <0>        0.00000
      2 P1          1.5395    3.0151    0.0000 P.3       1 <0>        0.00000
      3 N1          1.5395    2.1901    0.0000 N.pl3     1 <0>        0.00000
      4 C1          1.9520    1.4757    0.0000 C.3       1 <0>        0.00000
      5 C2          1.1270    1.4757    0.0000 C.3       1 <0>        0.00000
      6 N2          1.5395    3.8401    0.0000 N.pl3     1 <0>        0.00000
      7 C3          1.1270    4.5546    0.0000 C.3       1 <0>        0.00000
      8 C4          1.9520    4.5546    0.0000 C.3       1 <0>        0.00000
      9 N3          2.3645    3.0151    0.0000 N.pl3     1 <0>        0.00000
     10 C5          3.0789    3.4276    0.0000 C.3       1 <0>        0.00000
     11 C6          3.0789    2.6026    0.0000 C.3       1 <0>        0.00000
     12 H1          1.9520    1.4757    0.0000 H         1 <0>        0.00000
     13 H2          1.9520    1.4757    0.0000 H         1 <0>        0.00000
     14 H3          1.1270    1.4757    0.0000 H         1 <0>        0.00000
     15 H4          1.1270    1.4757    0.0000 H         1 <0>        0.00000
     16 H5          1.1270    4.5546    0.0000 H         1 <0>        0.00000
     17 H6          1.1270    4.5546    0.0000 H         1 <0>        0.00000
     18 H7          1.9520    4.5546    0.0000 H         1 <0>        0.00000
     19 H8          1.9520    4.5546    0.0000 H         1 <0>        0.00000
     20 H9          3.0789    3.4276    0.0000 H         1 <0>        0.00000
     21 H10         3.0789    3.4276    0.0000 H         1 <0>        0.00000
     22 H11         3.0789    2.6026    0.0000 H         1 <0>        0.00000
     23 H12         3.0789    2.6026    0.0000 H         1 <0>        0.00000
@<TRIPOS>BOND
     1    1    2 2
     2    2    3 1
     3    3    4 1
     4    4    5 1
     5    3    5 1
     6    2    6 1
     7    6    7 1
     8    7    8 1
     9    6    8 1
    10    2    9 1
    11    9   10 1
    12   10   11 1
    13    9   11 1
    14    4   12 1
    15    4   13 1
    16    5   14 1
    17    5   15 1
    18    7   16 1
    19    7   17 1
    20    8   18 1
    21    8   19 1
    22   10   20 1
    23   10   21 1
    24   11   22 1
    25   11   23 1
@<TRIPOS>SUBSTRUCTURE
     1 <0>         1 GROUP 0 A     ****
@<TRIPOS>MOLECULE
888
   50    53     1     0     0
SMALL
NO_CHARGES

@<TRIPOS>ATOM
      1 C1         -1.8368   -1.9576    0.0000 C.ar      1 <0>        0.00000
      2 C2         -1.8368   -2.7826    0.0000 C.ar      1 <0>        0.00000
      3 C3         -2.5512   -3.1951    0.0000 C.ar      1 <0>        0.00000
      4 C4         -3.2657   -2.7826    0.0000 C.ar      1 <0>        0.00000
      5 C5         -3.2657   -1.9576    0.0000 C.ar      1 <0>        0.00000
      6 C6         -2.5512   -1.5451    0.0000 C.ar      1 <0>        0.00000
      7 S1         -2.5512   -0.7201    0.0000 S.o2      1 <0>        0.00000
      8 N1         -1.8368   -0.3076    0.0000 N.ar      1 <0>        0.00000
      9 C7         -1.1223   -0.7201    0.0000 C.ar      1 <0>        0.00000
     10 N2         -1.1223   -1.5451    0.0000 N.pl3     1 <0>        0.00000
     11 C8         -0.4078   -0.3076    0.0000 C.ar      1 <0>        0.00000
     12 C9          0.3066   -0.7201    0.0000 C.ar      1 <0>        0.00000
     13 C10         1.0211   -0.3076    0.0000 C.ar      1 <0>        0.00000
     14 C11         1.0211    0.5174    0.0000 C.ar      1 <0>        0.00000
     15 N3          0.3066    0.9299    0.0000 N.am      1 <0>        0.00000
     16 C12        -0.4078    0.5174    0.0000 C.ar      1 <0>        0.00000
     17 C13         1.7356   -0.7201    0.0000 C.ar      1 <0>        0.00000
     18 C14         2.4501   -0.3076    0.0000 C.ar      1 <0>        0.00000
     19 C15         2.4501    0.5174    0.0000 C.ar      1 <0>        0.00000
     20 C16         1.7356    0.9299    0.0000 C.ar      1 <0>        0.00000
     21 O1          0.3066   -1.5451    0.0000 O.3       1 <0>        0.00000
     22 O2         -1.1223    0.9299    0.0000 O.2       1 <0>        0.00000
     23 C17         0.3066    1.7549    0.0000 C.3       1 <0>        0.00000
     24 C18        -0.4078    2.1674    0.0000 C.3       1 <0>        0.00000
     25 C19        -0.4078    2.9924    0.0000 C.3       1 <0>        0.00000
     26 C20        -1.1223    3.4049    0.0000 C.3       1 <0>        0.00000
     27 O3         -3.3757   -0.6913    0.0000 O.2       1 <0>        0.00000
     28 O4         -2.9884   -0.0204    0.0000 O.2       1 <0>        0.00000
     29 C21         0.3066    3.4049    0.0000 C.3       1 <0>        0.00000
     30 H1         -1.8368   -2.7826    0.0000 H         1 <0>        0.00000
     31 H2         -2.5512   -3.1951    0.0000 H         1 <0>        0.00000
     32 H3         -3.2657   -2.7826    0.0000 H         1 <0>        0.00000
     33 H4         -3.2657   -1.9576    0.0000 H         1 <0>        0.00000
     34 H5         -1.1223   -1.5451    0.0000 H         1 <0>        0.00000
     35 H6          1.7356   -0.7201    0.0000 H         1 <0>        0.00000
     36 H7          2.4501   -0.3076    0.0000 H         1 <0>        0.00000
     37 H8          2.4501    0.5174    0.0000 H         1 <0>        0.00000
     38 H9          1.7356    0.9299    0.0000 H         1 <0>        0.00000
     39 H10         0.3066   -1.5451    0.0000 H         1 <0>        0.00000
     40 H11         0.3066    1.7549    0.0000 H         1 <0>        0.00000
     41 H12         0.3066    1.7549    0.0000 H         1 <0>        0.00000
     42 H13        -0.4078    2.1674    0.0000 H         1 <0>        0.00000
     43 H14        -0.4078    2.1674    0.0000 H         1 <0>        0.00000
     44 H15        -0.4078    2.9924    0.0000 H         1 <0>        0.00000
     45 H16        -1.1223    3.4049    0.0000 H         1 <0>        0.00000
     46 H17        -1.1223    3.4049    0.0000 H         1 <0>        0.00000
     47 H18        -1.1223    3.4049    0.0000 H         1 <0>        0.00000
     48 H19         0.3066    3.4049    0.0000 H         1 <0>        0.00000
     49 H20         0.3066    3.4049    0.0000 H         1 <0>        0.00000
     50 H21         0.3066    3.4049    0.0000 H         1 <0>        0.00000
@<TRIPOS>BOND
     1    1    2 ar
     2    1    6 ar
     3    1   10 1
     4    2    3 ar
     5    3    4 ar
     6    4    5 ar
     7    5    6 ar
     8    6    7 1
     9    7    8 1
    10    7   27 2
    11    7   28 2
    12    8    9 2
    13    9   10 1
    14    9   11 1
    15   11   12 2
    16   11   16 1
    17   12   13 1
    18   12   21 1
    19   13   14 ar
    20   13   17 ar
    21   14   15 1
    22   14   20 ar
    23   15   16 am
    24   15   23 1
    25   16   22 2
    26   17   18 ar
    27   18   19 ar
    28   19   20 ar
    29   23   24 1
    30   24   25 1
    31   25   26 1
    32   25   29 1
    33    2   30 1
    34    3   31 1
    35    4   32 1
    36    5   33 1
    37   10   34 1
    38   17   35 1
    39   18   36 1
    40   19   37 1
    41   20   38 1
    42   21   39 1
    43   23   40 1
    44   23   41 1
    45   24   42 1
    46   24   43 1
    47   25   44 1
    48   26   45 1
    49   26   46 1
    50   26   47 1
    51   29   48 1
    52   29   49 1
    53   29   50 1
@<TRIPOS>SUBSTRUCTURE
     1 <0>         1 GROUP 0 A     ****
@<TRIPOS>MOLECULE
894
   52    54     1     0     0
SMALL
NO_CHARGES

@<TRIPOS>ATOM
      1 Cl1        -5.8261   -3.2134    0.0000 Cl        1 <0>        0.00000
      2 C1         -5.1587   -3.6983    0.0000 C.ar      1 <0>        0.00000
      3 C2         -5.1587   -4.5233    0.0000 C.ar      1 <0>        0.00000
      4 C3         -4.3740   -4.7782    0.0000 C.ar      1 <0>        0.00000
      5 C4         -3.8891   -4.1108    0.0000 C.ar      1 <0>        0.00000
      6 C5         -3.0641   -4.1108    0.0000 C.3       1 <0>        0.00000
      7 S1         -1.8266   -3.3963    0.0000 S.o2      1 <0>        0.00000
      8 O1         -1.8266   -4.2213    0.0000 O.2       1 <0>        0.00000
      9 O2         -1.8266   -2.5713    0.0000 O.2       1 <0>        0.00000
     10 N1         -1.0016   -3.3963    0.0000 N.pl3     1 <0>        0.00000
     11 C6         -0.5891   -2.6819    0.0000 C.3       1 <0>        0.00000
     12 C7         -0.9247   -1.9282    0.0000 C.3       1 <0>        0.00000
     13 C8         -0.3116   -1.3762    0.0000 C.3       1 <0>        0.00000
     14 C9          0.2314   -2.5956    0.0000 C.2       1 <0>        0.00000
     15 O3          0.7834   -3.2087    0.0000 O.2       1 <0>        0.00000
     16 N2          0.4029   -1.7887    0.0000 N.am      1 <0>        0.00000
     17 C10         1.1566   -1.4531    0.0000 C.3       1 <0>        0.00000
     18 C11         1.8240   -1.9380    0.0000 C.3       1 <0>        0.00000
     19 C12         1.2428   -0.6326    0.0000 C.2       1 <0>        0.00000
     20 O4          0.5754   -0.1477    0.0000 O.2       1 <0>        0.00000
     21 N3          1.9965   -0.2971    0.0000 N.am      1 <0>        0.00000
     22 C13         2.0827    0.5234    0.0000 C.3       1 <0>        0.00000
     23 C14         2.8364    0.8590    0.0000 C.3       1 <0>        0.00000
     24 O5          3.5038    0.3741    0.0000 O.3       1 <0>        0.00000
     25 C15         3.4176   -0.4464    0.0000 C.3       1 <0>        0.00000
     26 C16         2.6639   -0.7820    0.0000 C.3       1 <0>        0.00000
     27 S2         -4.3740   -3.4434    0.0000 S.3       1 <0>        0.00000
     28 C17        -2.6516   -3.3963    0.0000 C.3       1 <0>        0.00000
     29 H1         -1.1723   -2.6513    0.0000 H         1 <0>        0.00000
     30 H2          1.0955   -2.0338    0.0000 H         1 <0>        0.00000
     31 H3         -5.1587   -4.5233    0.0000 H         1 <0>        0.00000
     32 H4         -4.3740   -4.7782    0.0000 H         1 <0>        0.00000
     33 H5         -3.0641   -4.1108    0.0000 H         1 <0>        0.00000
     34 H6         -3.0641   -4.1108    0.0000 H         1 <0>        0.00000
     35 H7         -1.0016   -3.3963    0.0000 H         1 <0>        0.00000
     36 H8         -0.9247   -1.9282    0.0000 H         1 <0>        0.00000
     37 H9         -0.9247   -1.9282    0.0000 H         1 <0>        0.00000
     38 H10        -0.3116   -1.3762    0.0000 H         1 <0>        0.00000
     39 H11        -0.3116   -1.3762    0.0000 H         1 <0>        0.00000
     40 H12         1.8240   -1.9380    0.0000 H         1 <0>        0.00000
     41 H13         1.8240   -1.9380    0.0000 H         1 <0>        0.00000
     42 H14         1.8240   -1.9380    0.0000 H         1 <0>        0.00000
     43 H15         2.0827    0.5234    0.0000 H         1 <0>        0.00000
     44 H16         2.0827    0.5234    0.0000 H         1 <0>        0.00000
     45 H17         2.8364    0.8590    0.0000 H         1 <0>        0.00000
     46 H18         2.8364    0.8590    0.0000 H         1 <0>        0.00000
     47 H19         3.4176   -0.4464    0.0000 H         1 <0>        0.00000
     48 H20         3.4176   -0.4464    0.0000 H         1 <0>        0.00000
     49 H21         2.6639   -0.7820    0.0000 H         1 <0>        0.00000
     50 H22         2.6639   -0.7820    0.0000 H         1 <0>        0.00000
     51 H23        -2.6516   -3.3963    0.0000 H         1 <0>        0.00000
     52 H24        -2.6516   -3.3963    0.0000 H         1 <0>        0.00000
@<TRIPOS>BOND
     1    1    2 1
     2    2   27 1
     3    2    3 2
     4    3    4 1
     5    4    5 2
     6    5    6 1
     7    5   27 1
     8    6   28 1
     9    7    8 2
    10    7    9 2
    11    7   10 1
    12    7   28 1
    13   10   11 1
    14   11   12 1
    15   11   14 1
    16   11   29 1
    17   12   13 1
    18   13   16 1
    19   14   15 2
    20   14   16 am
    21   16   17 1
    22   17   18 1
    23   17   19 1
    24   17   30 1
    25   19   20 2
    26   19   21 am
    27   21   22 1
    28   21   26 1
    29   22   23 1
    30   23   24 1
    31   24   25 1
    32   25   26 1
    33    3   31 1
    34    4   32 1
    35    6   33 1
    36    6   34 1
    37   10   35 1
    38   12   36 1
    39   12   37 1
    40   13   38 1
    41   13   39 1
    42   18   40 1
    43   18   41 1
    44   18   42 1
    45   22   43 1
    46   22   44 1
    47   23   45 1
    48   23   46 1
    49   25   47 1
    50   25   48 1
    51   26   49 1
    52   26   50 1
    53   28   51 1
    54   28   52 1
@<TRIPOS>SUBSTRUCTURE
     1 <0>         1 GROUP 0 A     ****
@<TRIPOS>MOLECULE
ID5
   38    40     1     0     0
SMALL
NO_CHARGES

@<TRIPOS>ATOM
      1 C1         -2.3222   -1.3904    0.0000 C.ar      1 <0>        0.00000
      2 C2         -0.6722   -1.3904    0.0000 C.ar      1 <0>        0.00000
      3 C3         -1.9097   -0.6760    0.0000 C.ar      1 <0>        0.00000
      4 C4         -1.9097   -2.1049    0.0000 C.ar      1 <0>        0.00000
      5 C5         -1.0847   -2.1049    0.0000 C.ar      1 <0>        0.00000
      6 C6         -1.0847   -0.6760    0.0000 C.ar      1 <0>        0.00000
      7 F1          4.8033    1.5780    0.0000 F         1 <0>        0.00000
      8 F2         -2.3222   -2.8194    0.0000 F         1 <0>        0.00000
      9 C7         -0.6722    0.0385    0.0000 C.2       1 <0>        0.00000
     10 C8          1.3903    0.7530    0.0000 C.ar      1 <0>        0.00000
     11 F3          3.3743   -0.8970    0.0000 F         1 <0>        0.00000
     12 O1         -2.3222    0.0385    0.0000 O.3       1 <0>        0.00000
     13 O2         -1.0847    0.7530    0.0000 O.2       1 <0>        0.00000
     14 C9          0.5653    0.7530    0.0000 C.3       1 <0>        0.00000
     15 C10        -3.1472    0.0385    0.0000 C.3       1 <0>        0.00000
     16 N1          1.8752    1.4204    0.0000 N.ar      1 <0>        0.00000
     17 S1          1.8752    0.0855    0.0000 S.3       1 <0>        0.00000
     18 F4          3.3743    2.4030    0.0000 F         1 <0>        0.00000
     19 C11         2.6599    0.3405    0.0000 C.ar      1 <0>        0.00000
     20 C12         4.0888    1.1655    0.0000 C.ar      1 <0>        0.00000
     21 C13         2.6599    1.1655    0.0000 C.ar      1 <0>        0.00000
     22 C14         3.3743   -0.0720    0.0000 C.ar      1 <0>        0.00000
     23 C15         4.0888    0.3405    0.0000 C.ar      1 <0>        0.00000
     24 C16         3.3743    1.5780    0.0000 C.ar      1 <0>        0.00000
     25 C17        -3.5597    0.7530    0.0000 C.2       1 <0>        0.00000
     26 O3         -4.3847    0.7530    0.0000 O.3       1 <0>        0.00000
     27 O4         -3.1472    1.4675    0.0000 O.2       1 <0>        0.00000
     28 N2          0.1528    0.0385    0.0000 N.am      1 <0>        0.00000
     29 H1         -2.3222   -1.3904    0.0000 H         1 <0>        0.00000
     30 H2         -0.6722   -1.3904    0.0000 H         1 <0>        0.00000
     31 H3         -1.0847   -2.1049    0.0000 H         1 <0>        0.00000
     32 H4          0.5653    0.7530    0.0000 H         1 <0>        0.00000
     33 H5          0.5653    0.7530    0.0000 H         1 <0>        0.00000
     34 H6         -3.1472    0.0385    0.0000 H         1 <0>        0.00000
     35 H7         -3.1472    0.0385    0.0000 H         1 <0>        0.00000
     36 H8          4.0888    0.3405    0.0000 H         1 <0>        0.00000
     37 H9         -4.3847    0.7530    0.0000 H         1 <0>        0.00000
     38 H10         0.1528    0.0385    0.0000 H         1 <0>        0.00000
@<TRIPOS>BOND
     1    1    3 ar
     2    1    4 ar
     3    2    5 ar
     4    2    6 ar
     5    3    6 ar
     6    3   12 1
     7    4    5 ar
     8    4    8 1
     9    6    9 1
    10    7   20 1
    11    9   13 2
    12    9   28 am
    13   10   14 1
    14   10   16 2
    15   10   17 1
    16   11   22 1
    17   12   15 1
    18   14   28 1
    19   15   25 1
    20   16   21 1
    21   17   19 1
    22   18   24 1
    23   19   21 ar
    24   19   22 ar
    25   20   23 ar
    26   20   24 ar
    27   21   24 ar
    28   22   23 ar
    29   25   26 1
    30   25   27 2
    31    1   29 1
    32    2   30 1
    33    5   31 1
    34   14   32 1
    35   14   33 1
    36   15   34 1
    37   15   35 1
    38   23   36 1
    39   26   37 1
    40   28   38 1
@<TRIPOS>SUBSTRUCTURE
     1 <0>         1 GROUP 0 A     ****
@<TRIPOS>MOLECULE
1031
   25    25     1     0     0
SMALL
NO_CHARGES

@<TRIPOS>ATOM
      1 O1          3.1433    0.6035    0.0000 O.3       1 <0>        0.00000
      2 O2          4.3808   -0.1110    0.0000 O.2       1 <0>        0.00000
      3 N1          4.3808    1.3180    0.0000 N.am      1 <0>        0.00000
      4 C1          2.7308   -0.1110    0.0000 C.3       1 <0>        0.00000
      5 C2          2.0163   -0.5235    0.0000 C.3       1 <0>        0.00000
      6 C3          3.4453   -0.5235    0.0000 C.3       1 <0>        0.00000
      7 C4          2.0163   -1.3485    0.0000 C.3       1 <0>        0.00000
      8 C5          3.4453   -1.3485    0.0000 C.3       1 <0>        0.00000
      9 C6          2.7308   -1.7610    0.0000 C.3       1 <0>        0.00000
     10 C7          2.3183    0.6035    0.0000 C.1       1 <0>        0.00000
     11 C8          3.9683    0.6035    0.0000 C.2       1 <0>        0.00000
     12 C9          1.9058    1.3180    0.0000 C.1       1 <0>        0.00000
     13 H1          4.3808    1.3180    0.0000 H         1 <0>        0.00000
     14 H2          4.3808    1.3180    0.0000 H         1 <0>        0.00000
     15 H3          2.0163   -0.5235    0.0000 H         1 <0>        0.00000
     16 H4          2.0163   -0.5235    0.0000 H         1 <0>        0.00000
     17 H5          3.4453   -0.5235    0.0000 H         1 <0>        0.00000
     18 H6          3.4453   -0.5235    0.0000 H         1 <0>        0.00000
     19 H7          2.0163   -1.3485    0.0000 H         1 <0>        0.00000
     20 H8          2.0163   -1.3485    0.0000 H         1 <0>        0.00000
     21 H9          3.4453   -1.3485    0.0000 H         1 <0>        0.00000
     22 H10         3.4453   -1.3485    0.0000 H         1 <0>        0.00000
     23 H11         2.7308   -1.7610    0.0000 H         1 <0>        0.00000
     24 H12         2.7308   -1.7610    0.0000 H         1 <0>        0.00000
     25 H13         1.9058    1.3180    0.0000 H         1 <0>        0.00000
@<TRIPOS>BOND
     1    1    4 1
     2    1   11 1
     3    2   11 2
     4    3   11 am
     5    4    5 1
     6    4    6 1
     7    4   10 1
     8    5    7 1
     9    6    8 1
    10    7    9 1
    11    8    9 1
    12   10   12 3
    13    3   13 1
    14    3   14 1
    15    5   15 1
    16    5   16 1
    17    6   17 1
    18    6   18 1
    19    7   19 1
    20    7   20 1
    21    8   21 1
    22    8   22 1
    23    9   23 1
    24    9   24 1
    25   12   25 1
@<TRIPOS>SUBSTRUCTURE
     1 <0>         1 GROUP 0 A     ****
@<TRIPOS>MOLECULE
1034
   33    33     1     0     0
SMALL
NO_CHARGES

@<TRIPOS>ATOM
      1 O1          3.9345    0.9760    0.0000 O.3       1 <0>        0.00000
      2 O2          5.0615   -0.9760    0.0000 O.2       1 <0>        0.00000
      3 O3          2.8075   -0.9760    0.0000 O.2       1 <0>        0.00000
      4 N1          2.0930    0.2615    0.0000 N.am      1 <0>        0.00000
      5 C1          4.3470    0.2615    0.0000 C.3       1 <0>        0.00000
      6 C2          3.5220    0.2615    0.0000 C.3       1 <0>        0.00000
      7 C3          5.0615   -0.1510    0.0000 C.2       1 <0>        0.00000
      8 C4          5.7760    0.2615    0.0000 C.3       1 <0>        0.00000
      9 C5          2.8075   -0.1510    0.0000 C.2       1 <0>        0.00000
     10 C6          6.4905   -0.1510    0.0000 C.3       1 <0>        0.00000
     11 C7          7.2050    0.2615    0.0000 C.2       1 <0>        0.00000
     12 C8          7.9194   -0.1510    0.0000 C.2       1 <0>        0.00000
     13 C9          8.6339    0.2615    0.0000 C.3       1 <0>        0.00000
     14 C10         9.3484   -0.1510    0.0000 C.2       1 <0>        0.00000
     15 C11        10.0629    0.2615    0.0000 C.2       1 <0>        0.00000
     16 C12        10.7774   -0.1510    0.0000 C.3       1 <0>        0.00000
     17 H1          2.0930    0.2615    0.0000 H         1 <0>        0.00000
     18 H2          2.0930    0.2615    0.0000 H         1 <0>        0.00000
     19 H3          4.3470    0.2615    0.0000 H         1 <0>        0.00000
     20 H4          3.5220    0.2615    0.0000 H         1 <0>        0.00000
     21 H5          5.7760    0.2615    0.0000 H         1 <0>        0.00000
     22 H6          5.7760    0.2615    0.0000 H         1 <0>        0.00000
     23 H7          6.4905   -0.1510    0.0000 H         1 <0>        0.00000
     24 H8          6.4905   -0.1510    0.0000 H         1 <0>        0.00000
     25 H9          7.2050    0.2615    0.0000 H         1 <0>        0.00000
     26 H10         7.9194   -0.1510    0.0000 H         1 <0>        0.00000
     27 H11         8.6339    0.2615    0.0000 H         1 <0>        0.00000
     28 H12         8.6339    0.2615    0.0000 H         1 <0>        0.00000
     29 H13         9.3484   -0.1510    0.0000 H         1 <0>        0.00000
     30 H14        10.0629    0.2615    0.0000 H         1 <0>        0.00000
     31 H15        10.7774   -0.1510    0.0000 H         1 <0>        0.00000
     32 H16        10.7774   -0.1510    0.0000 H         1 <0>        0.00000
     33 H17        10.7774   -0.1510    0.0000 H         1 <0>        0.00000
@<TRIPOS>BOND
     1    1    5 1
     2    1    6 1
     3    2    7 2
     4    3    9 2
     5    4    9 am
     6    5    6 1
     7    5    7 1
     8    6    9 1
     9    7    8 1
    10    8   10 1
    11   10   11 1
    12   11   12 2
    13   12   13 1
    14   13   14 1
    15   14   15 2
    16   15   16 1
    17    4   17 1
    18    4   18 1
    19    5   19 1
    20    6   20 1
    21    8   21 1
    22    8   22 1
    23   10   23 1
    24   10   24 1
    25   11   25 1
    26   12   26 1
    27   13   27 1
    28   13   28 1
    29   14   29 1
    30   15   30 1
    31   16   31 1
    32   16   32 1
    33   16   33 1
@<TRIPOS>SUBSTRUCTURE
     1 <0>         1 GROUP 0 A     ****
@<TRIPOS>MOLECULE
*****
   20    20     1     0     0
SMALL
NO_CHARGES

@<TRIPOS>ATOM
      1 N1          1.5783    2.2433    0.0000 N.3       1 <0>        0.00000
      2 C1          2.1913    1.6913    0.0000 C.3       1 <0>        0.00000
      3 C2          2.0198    0.8843    0.0000 C.3       1 <0>        0.00000
      4 C3          1.2352    0.6294    0.0000 C.ar      1 <0>        0.00000
      5 C4          0.9803   -0.1553    0.0000 C.ar      1 <0>        0.00000
      6 O1          0.1553   -0.1553    0.0000 O.3       1 <0>        0.00000
      7 N2         -0.0997    0.6294    0.0000 N.am      1 <0>        0.00000
      8 C5          0.5678    1.1143    0.0000 C.ar      1 <0>        0.00000
      9 O2          0.5678    1.9393    0.0000 O.2       1 <0>        0.00000
     10 C6          2.9760    1.9462    0.0000 C.2       1 <0>        0.00000
     11 O3          3.1475    2.7532    0.0000 O.3       1 <0>        0.00000
     12 O4          3.5891    1.3942    0.0000 O.2       1 <0>        0.00000
     13 H1          1.5783    2.2433    0.0000 H         1 <0>        0.00000
     14 H2          1.5783    2.2433    0.0000 H         1 <0>        0.00000
     15 H3          2.1913    1.6913    0.0000 H         1 <0>        0.00000
     16 H4          2.0198    0.8843    0.0000 H         1 <0>        0.00000
     17 H5          2.0198    0.8843    0.0000 H         1 <0>        0.00000
     18 H6          0.9803   -0.1553    0.0000 H         1 <0>        0.00000
     19 H7         -0.0997    0.6294    0.0000 H         1 <0>        0.00000
     20 H8          3.1475    2.7532    0.0000 H         1 <0>        0.00000
@<TRIPOS>BOND
     1    1    2 1
     2    2    3 1
     3    3    4 1
     4    4    5 2
     5    5    6 1
     6    6    7 1
     7    7    8 am
     8    4    8 1
     9    8    9 2
    10    2   10 1
    11   10   11 1
    12   10   12 2
    13    1   13 1
    14    1   14 1
    15    2   15 1
    16    3   16 1
    17    3   17 1
    18    5   18 1
    19    7   19 1
    20   11   20 1
@<TRIPOS>SUBSTRUCTURE
     1 <0>         1 GROUP 0 A     ****
@<TRIPOS>MOLECULE
*****
   31    31     1     0     0
SMALL
NO_CHARGES

@<TRIPOS>ATOM
      1 C1         -1.7813   -1.0812    0.0000 C.ar      1 <0>        0.00000
      2 C2         -2.4957   -1.4937    0.0000 C.ar      1 <0>        0.00000
      3 C3         -2.4957   -2.3188    0.0000 C.ar      1 <0>        0.00000
      4 C4         -1.7813   -2.7313    0.0000 C.ar      1 <0>        0.00000
      5 C5         -1.0668   -2.3188    0.0000 C.ar      1 <0>        0.00000
      6 C6         -1.0668   -1.4937    0.0000 C.ar      1 <0>        0.00000
      7 C7         -0.3523   -1.0812    0.0000 C.3       1 <0>        0.00000
      8 C8          1.0766   -1.0812    0.0000 C.3       1 <0>        0.00000
      9 C9          0.3622   -1.4937    0.0000 C.3       1 <0>        0.00000
     10 C10        -0.3523   -2.7312    0.0000 C.3       1 <0>        0.00000
     11 C11         1.0766   -2.7312    0.0000 C.3       1 <0>        0.00000
     12 C12         1.7911   -2.3187    0.0000 C.1       1 <0>        0.00000
     13 C13         2.5056   -1.9062    0.0000 C.1       1 <0>        0.00000
     14 N1          0.3622   -2.3187    0.0000 N.3       1 <0>        0.00000
     15 H1         -1.7813   -1.0812    0.0000 H         1 <0>        0.00000
     16 H2         -2.4957   -1.4937    0.0000 H         1 <0>        0.00000
     17 H3         -2.4957   -2.3188    0.0000 H         1 <0>        0.00000
     18 H4         -1.7813   -2.7313    0.0000 H         1 <0>        0.00000
     19 H5         -1.0668   -2.3188    0.0000 H         1 <0>        0.00000
     20 H6         -0.3523   -1.0812    0.0000 H         1 <0>        0.00000
     21 H7         -0.3523   -1.0812    0.0000 H         1 <0>        0.00000
     22 H8          1.0766   -1.0812    0.0000 H         1 <0>        0.00000
     23 H9          1.0766   -1.0812    0.0000 H         1 <0>        0.00000
     24 H10         1.0766   -1.0812    0.0000 H         1 <0>        0.00000
     25 H11         0.3622   -1.4937    0.0000 H         1 <0>        0.00000
     26 H12        -0.3523   -2.7312    0.0000 H         1 <0>        0.00000
     27 H13        -0.3523   -2.7312    0.0000 H         1 <0>        0.00000
     28 H14        -0.3523   -2.7312    0.0000 H         1 <0>        0.00000
     29 H15         1.0766   -2.7312    0.0000 H         1 <0>        0.00000
     30 H16         1.0766   -2.7312    0.0000 H         1 <0>        0.00000
     31 H17         2.5056   -1.9062    0.0000 H         1 <0>        0.00000
@<TRIPOS>BOND
     1    1    2 ar
     2    1    6 ar
     3    2    3 ar
     4    3    4 ar
     5    4    5 ar
     6    5    6 ar
     7    6    7 1
     8    7    9 1
     9    8    9 1
    10   10   14 1
    11   11   14 1
    12   11   12 1
    13   12   13 3
    14    9   14 1
    15    1   15 1
    16    2   16 1
    17    3   17 1
    18    4   18 1
    19    5   19 1
    20    7   20 1
    21    7   21 1
    22    8   22 1
    23    8   23 1
    24    8   24 1
    25    9   25 1
    26   10   26 1
    27   10   27 1
    28   10   28 1
    29   11   29 1
    30   11   30 1
    31   13   31 1
@<TRIPOS>SUBSTRUCTURE
     1 <0>         1 GROUP 0 A     ****
@<TRIPOS>MOLECULE
1406
   52    56     1     0     0
SMALL
NO_CHARGES

@<TRIPOS>ATOM
      1 O1          6.9568   -1.5062    0.0000 O.3       1 <0>        0.00000
      2 O2          2.0778    1.8006    0.0000 O.3       1 <0>        0.00000
      3 N1          1.5935    1.1328    0.0000 N.ar      1 <0>        0.00000
      4 C1          6.4022    0.3306    0.0000 C.3       1 <0>        0.00000
      5 C2          6.4086   -0.4993    0.0000 C.3       1 <0>        0.00000
      6 C3          5.6772    0.7344    0.0000 C.3       1 <0>        0.00000
      7 C4          4.9872    0.3361    0.0000 C.3       1 <0>        0.00000
      8 C5          4.2973    0.7344    0.0000 C.3       1 <0>        0.00000
      9 C6          5.6899   -0.9142    0.0000 C.3       1 <0>        0.00000
     10 C7          7.1958   -0.7462    0.0000 C.3       1 <0>        0.00000
     11 C8          4.9745   -0.4937    0.0000 C.3       1 <0>        0.00000
     12 C9          7.1855    0.5895    0.0000 C.3       1 <0>        0.00000
     13 C10         5.6772    1.5312    0.0000 C.3       1 <0>        0.00000
     14 C11         7.6751   -0.0746    0.0000 C.3       1 <0>        0.00000
     15 C12         4.2973    1.5312    0.0000 C.2       1 <0>        0.00000
     16 C13         6.4148   -1.2960    0.0000 C.3       1 <0>        0.00000
     17 C14         4.9872    1.9296    0.0000 C.3       1 <0>        0.00000
     18 C15         3.5850    0.3084    0.0000 C.3       1 <0>        0.00000
     19 C16         4.2973   -0.0623    0.0000 C.3       1 <0>        0.00000
     20 C17         7.8448   -1.2083    0.0000 C.1       1 <0>        0.00000
     21 C18         3.5850    1.9571    0.0000 C.2       1 <0>        0.00000
     22 C19         2.8630    0.7178    0.0000 C.ar      1 <0>        0.00000
     23 C20         2.8630    1.5477    0.0000 C.ar      1 <0>        0.00000
     24 C21         2.0778    0.4649    0.0000 C.ar      1 <0>        0.00000
     25 C22         8.4938   -1.6706    0.0000 C.1       1 <0>        0.00000
     26 H1          6.4623    0.9651    0.0000 H         1 <0>        0.00000
     27 H2          6.2267    1.0574    0.0000 H         1 <0>        0.00000
     28 H3          4.4329    0.0216    0.0000 H         1 <0>        0.00000
     29 H4          6.9568   -1.5062    0.0000 H         1 <0>        0.00000
     30 H5          5.6899   -0.9142    0.0000 H         1 <0>        0.00000
     31 H6          5.6899   -0.9142    0.0000 H         1 <0>        0.00000
     32 H7          4.9745   -0.4937    0.0000 H         1 <0>        0.00000
     33 H8          4.9745   -0.4937    0.0000 H         1 <0>        0.00000
     34 H9          7.1855    0.5895    0.0000 H         1 <0>        0.00000
     35 H10         7.1855    0.5895    0.0000 H         1 <0>        0.00000
     36 H11         5.6772    1.5312    0.0000 H         1 <0>        0.00000
     37 H12         5.6772    1.5312    0.0000 H         1 <0>        0.00000
     38 H13         7.6751   -0.0746    0.0000 H         1 <0>        0.00000
     39 H14         7.6751   -0.0746    0.0000 H         1 <0>        0.00000
     40 H15         6.4148   -1.2960    0.0000 H         1 <0>        0.00000
     41 H16         6.4148   -1.2960    0.0000 H         1 <0>        0.00000
     42 H17         6.4148   -1.2960    0.0000 H         1 <0>        0.00000
     43 H18         4.9872    1.9296    0.0000 H         1 <0>        0.00000
     44 H19         4.9872    1.9296    0.0000 H         1 <0>        0.00000
     45 H20         3.5850    0.3084    0.0000 H         1 <0>        0.00000
     46 H21         3.5850    0.3084    0.0000 H         1 <0>        0.00000
     47 H22         4.2973   -0.0623    0.0000 H         1 <0>        0.00000
     48 H23         4.2973   -0.0623    0.0000 H         1 <0>        0.00000
     49 H24         4.2973   -0.0623    0.0000 H         1 <0>        0.00000
     50 H25         3.5850    1.9571    0.0000 H         1 <0>        0.00000
     51 H26         2.0778    0.4649    0.0000 H         1 <0>        0.00000
     52 H27         8.4938   -1.6706    0.0000 H         1 <0>        0.00000
@<TRIPOS>BOND
     1    1   10 1
     2    2    3 1
     3    2   23 1
     4    3   24 2
     5    4    5 1
     6    4    6 1
     7    4   12 1
     8    4   26 1
     9    5    9 1
    10    5   10 1
    11    5   16 1
    12    6    7 1
    13    6   13 1
    14    6   27 1
    15    7    8 1
    16    7   11 1
    17    7   28 1
    18    8   15 1
    19    8   18 1
    20    8   19 1
    21    9   11 1
    22   10   14 1
    23   10   20 1
    24   12   14 1
    25   13   17 1
    26   15   17 1
    27   15   21 2
    28   18   22 1
    29   20   25 3
    30   21   23 1
    31   22   23 2
    32   22   24 1
    33    1   29 1
    34    9   30 1
    35    9   31 1
    36   11   32 1
    37   11   33 1
    38   12   34 1
    39   12   35 1
    40   13   36 1
    41   13   37 1
    42   14   38 1
    43   14   39 1
    44   16   40 1
    45   16   41 1
    46   16   42 1
    47   17   43 1
    48   17   44 1
    49   18   45 1
    50   18   46 1
    51   19   47 1
    52   19   48 1
    53   19   49 1
    54   21   50 1
    55   24   51 1
    56   25   52 1
@<TRIPOS>SUBSTRUCTURE
     1 <0>         1 GROUP 0 A     ****
@<TRIPOS>MOLECULE
*****
   81    83     1     0     0
SMALL
NO_CHARGES

@<TRIPOS>ATOM
      1 C1          0.0000   -4.1250    0.0000 C.3       1 <0>        0.00000
      2 C2          0.0000   -4.9500    0.0000 C.3       1 <0>        0.00000
      3 N1          0.7145   -5.3625    0.0000 N.am      1 <0>        0.00000
      4 C3          0.7145   -6.1875    0.0000 C.2       1 <0>        0.00000
      5 O1          0.0000   -6.6000    0.0000 O.2       1 <0>        0.00000
      6 C4          1.4289   -6.6000    0.0000 C.3       1 <0>        0.00000
      7 C5          1.4289   -7.4250    0.0000 C.3       1 <0>        0.00000
      8 C6          2.1434   -7.8375    0.0000 C.ar      1 <0>        0.00000
      9 C7          2.8579   -7.4250    0.0000 C.ar      1 <0>        0.00000
     10 C8          3.5724   -7.8375    0.0000 C.ar      1 <0>        0.00000
     11 C9          3.5724   -8.6625    0.0000 C.ar      1 <0>        0.00000
     12 O2          4.2868   -9.0750    0.0000 O.3       1 <0>        0.00000
     13 C10         4.2868   -9.9000    0.0000 C.3       1 <0>        0.00000
     14 C11         5.0013  -10.3125    0.0000 C.2       1 <0>        0.00000
     15 O3          5.0013  -11.1375    0.0000 O.3       1 <0>        0.00000
     16 O4          5.7158   -9.9000    0.0000 O.2       1 <0>        0.00000
     17 C12         2.8579   -9.0750    0.0000 C.ar      1 <0>        0.00000
     18 C13         2.1434   -8.6625    0.0000 C.ar      1 <0>        0.00000
     19 P1          2.8579   -9.9000    0.0000 P.3       1 <0>        0.00000
     20 O5          2.8579  -10.7250    0.0000 O.3       1 <0>        0.00000
     21 O6          2.0329   -9.9000    0.0000 O.3       1 <0>        0.00000
     22 O7          3.6829   -9.9000    0.0000 O.2       1 <0>        0.00000
     23 N2          2.1434   -6.1875    0.0000 N.am      1 <0>        0.00000
     24 C14         2.1434   -5.3625    0.0000 C.2       1 <0>        0.00000
     25 C15         1.4289   -4.9500    0.0000 C.3       1 <0>        0.00000
     26 O8          2.8579   -4.9500    0.0000 O.2       1 <0>        0.00000
     27 C16        -0.7145   -5.3625    0.0000 C.ar      1 <0>        0.00000
     28 C17        -0.7145   -6.1875    0.0000 C.ar      1 <0>        0.00000
     29 C18        -1.4289   -6.6000    0.0000 C.ar      1 <0>        0.00000
     30 C19        -2.1434   -6.1875    0.0000 C.ar      1 <0>        0.00000
     31 O9         -2.8579   -6.6000    0.0000 O.3       1 <0>        0.00000
     32 C20        -2.8579   -7.4250    0.0000 C.3       1 <0>        0.00000
     33 C21        -3.5724   -7.8375    0.0000 C.3       1 <0>        0.00000
     34 C22        -3.5724   -8.6625    0.0000 C.3       1 <0>        0.00000
     35 C23        -4.2868   -9.0750    0.0000 C.3       1 <0>        0.00000
     36 C24        -5.0013   -8.6625    0.0000 C.3       1 <0>        0.00000
     37 C25        -5.0013   -7.8375    0.0000 C.3       1 <0>        0.00000
     38 C26        -4.2868   -7.4250    0.0000 C.3       1 <0>        0.00000
     39 C27        -2.1434   -5.3625    0.0000 C.ar      1 <0>        0.00000
     40 C28        -1.4289   -4.9500    0.0000 C.ar      1 <0>        0.00000
     41 C29        -2.8579   -4.9500    0.0000 C.2       1 <0>        0.00000
     42 N3         -2.8579   -4.1250    0.0000 N.am      1 <0>        0.00000
     43 O10        -3.5724   -5.3625    0.0000 O.2       1 <0>        0.00000
     44 H1          0.0000   -4.1250    0.0000 H         1 <0>        0.00000
     45 H2          0.0000   -4.1250    0.0000 H         1 <0>        0.00000
     46 H3          0.0000   -4.1250    0.0000 H         1 <0>        0.00000
     47 H4          0.0000   -4.9500    0.0000 H         1 <0>        0.00000
     48 H5          0.7145   -5.3625    0.0000 H         1 <0>        0.00000
     49 H6          1.4289   -6.6000    0.0000 H         1 <0>        0.00000
     50 H7          1.4289   -7.4250    0.0000 H         1 <0>        0.00000
     51 H8          1.4289   -7.4250    0.0000 H         1 <0>        0.00000
     52 H9          2.8579   -7.4250    0.0000 H         1 <0>        0.00000
     53 H10         3.5724   -7.8375    0.0000 H         1 <0>        0.00000
     54 H11         4.2868   -9.9000    0.0000 H         1 <0>        0.00000
     55 H12         4.2868   -9.9000    0.0000 H         1 <0>        0.00000
     56 H13         5.0013  -11.1375    0.0000 H         1 <0>        0.00000
     57 H14         2.1434   -8.6625    0.0000 H         1 <0>        0.00000
     58 H15         2.8579  -10.7250    0.0000 H         1 <0>        0.00000
     59 H16         2.0329   -9.9000    0.0000 H         1 <0>        0.00000
     60 H17         2.1434   -6.1875    0.0000 H         1 <0>        0.00000
     61 H18         1.4289   -4.9500    0.0000 H         1 <0>        0.00000
     62 H19         1.4289   -4.9500    0.0000 H         1 <0>        0.00000
     63 H20         1.4289   -4.9500    0.0000 H         1 <0>        0.00000
     64 H21        -0.7145   -6.1875    0.0000 H         1 <0>        0.00000
     65 H22        -1.4289   -6.6000    0.0000 H         1 <0>        0.00000
     66 H23        -2.8579   -7.4250    0.0000 H         1 <0>        0.00000
     67 H24        -2.8579   -7.4250    0.0000 H         1 <0>        0.00000
     68 H25        -3.5724   -7.8375    0.0000 H         1 <0>        0.00000
     69 H26        -3.5724   -8.6625    0.0000 H         1 <0>        0.00000
     70 H27        -3.5724   -8.6625    0.0000 H         1 <0>        0.00000
     71 H28        -4.2868   -9.0750    0.0000 H         1 <0>        0.00000
     72 H29        -4.2868   -9.0750    0.0000 H         1 <0>        0.00000
     73 H30        -5.0013   -8.6625    0.0000 H         1 <0>        0.00000
     74 H31        -5.0013   -8.6625    0.0000 H         1 <0>        0.00000
     75 H32        -5.0013   -7.8375    0.0000 H         1 <0>        0.00000
     76 H33        -5.0013   -7.8375    0.0000 H         1 <0>        0.00000
     77 H34        -4.2868   -7.4250    0.0000 H         1 <0>        0.00000
     78 H35        -4.2868   -7.4250    0.0000 H         1 <0>        0.00000
     79 H36        -1.4289   -4.9500    0.0000 H         1 <0>        0.00000
     80 H37        -2.8579   -4.1250    0.0000 H         1 <0>        0.00000
     81 H38        -2.8579   -4.1250    0.0000 H         1 <0>        0.00000
@<TRIPOS>BOND
     1    1    2 1
     2    2    3 1
     3    3    4 am
     4    4    5 2
     5    4    6 1
     6    6    7 1
     7    7    8 1
     8    8    9 ar
     9    9   10 ar
    10   10   11 ar
    11   11   12 1
    12   12   13 1
    13   13   14 1
    14   14   15 1
    15   14   16 2
    16   11   17 ar
    17   17   18 ar
    18    8   18 ar
    19   17   19 1
    20   19   20 1
    21   19   21 1
    22   19   22 2
    23    6   23 1
    24   23   24 am
    25   24   25 1
    26   24   26 2
    27    2   27 1
    28   27   28 ar
    29   28   29 ar
    30   29   30 ar
    31   30   31 1
    32   31   32 1
    33   32   33 1
    34   33   34 1
    35   34   35 1
    36   35   36 1
    37   36   37 1
    38   37   38 1
    39   33   38 1
    40   30   39 ar
    41   39   40 ar
    42   27   40 ar
    43   39   41 1
    44   41   42 am
    45   41   43 2
    46    1   44 1
    47    1   45 1
    48    1   46 1
    49    2   47 1
    50    3   48 1
    51    6   49 1
    52    7   50 1
    53    7   51 1
    54    9   52 1
    55   10   53 1
    56   13   54 1
    57   13   55 1
    58   15   56 1
    59   18   57 1
    60   20   58 1
    61   21   59 1
    62   23   60 1
    63   25   61 1
    64   25   62 1
    65   25   63 1
    66   28   64 1
    67   29   65 1
    68   32   66 1
    69   32   67 1
    70   33   68 1
    71   34   69 1
    72   34   70 1
    73   35   71 1
    74   35   72 1
    75   36   73 1
    76   36   74 1
    77   37   75 1
    78   37   76 1
    79   38   77 1
    80   38   78 1
    81   40   79 1
    82   42   80 1
    83   42   81 1
@<TRIPOS>SUBSTRUCTURE
     1 <0>         1 GROUP 0 A     ****
@<TRIPOS>MOLECULE
*****
   78    79     1     0     0
SMALL
NO_CHARGES

@<TRIPOS>ATOM
      1 N1          8.5737   -9.0750    0.0000 N.2       1 <0>        0.00000
      2 C1          7.8592   -8.6625    0.0000 C.2       1 <0>        0.00000
      3 N2          7.1447   -9.0750    0.0000 N.pl3     1 <0>        0.00000
      4 C2          7.8592   -7.8375    0.0000 C.3       1 <0>        0.00000
      5 C3          7.1447   -7.4250    0.0000 C.3       1 <0>        0.00000
      6 C4          7.1447   -6.6000    0.0000 C.3       1 <0>        0.00000
      7 N3          6.4302   -6.1875    0.0000 N.am      1 <0>        0.00000
      8 C5          5.7158   -6.6000    0.0000 C.2       1 <0>        0.00000
      9 O1          5.7158   -7.4250    0.0000 O.2       1 <0>        0.00000
     10 C6          5.0013   -6.1875    0.0000 C.3       1 <0>        0.00000
     11 N4          4.2868   -6.6000    0.0000 N.pl3     1 <0>        0.00000
     12 S1          3.5724   -6.1875    0.0000 S.o2      1 <0>        0.00000
     13 O2          3.1599   -6.9020    0.0000 O.2       1 <0>        0.00000
     14 O3          3.9849   -5.4730    0.0000 O.2       1 <0>        0.00000
     15 C7          2.8579   -5.7750    0.0000 C.3       1 <0>        0.00000
     16 C8          2.1434   -6.1875    0.0000 C.ar      1 <0>        0.00000
     17 C9          2.1434   -7.0125    0.0000 C.ar      1 <0>        0.00000
     18 C10         1.4289   -7.4250    0.0000 C.ar      1 <0>        0.00000
     19 C11         0.7145   -7.0125    0.0000 C.ar      1 <0>        0.00000
     20 C12         0.7145   -6.1875    0.0000 C.ar      1 <0>        0.00000
     21 C13         1.4289   -5.7750    0.0000 C.ar      1 <0>        0.00000
     22 C14         1.4289   -8.2500    0.0000 C.2       1 <0>        0.00000
     23 O4          0.7145   -8.6625    0.0000 O.3       1 <0>        0.00000
     24 O5          2.1434   -8.6625    0.0000 O.2       1 <0>        0.00000
     25 C15         5.0013   -5.3625    0.0000 C.3       1 <0>        0.00000
     26 C16         5.7158   -4.9500    0.0000 C.3       1 <0>        0.00000
     27 C17         4.2868   -4.9500    0.0000 C.3       1 <0>        0.00000
     28 C18         4.2868   -4.1250    0.0000 C.3       1 <0>        0.00000
     29 C19         7.8592   -6.1875    0.0000 C.2       1 <0>        0.00000
     30 O6          7.8592   -5.3625    0.0000 O.2       1 <0>        0.00000
     31 N5          8.5737   -6.6000    0.0000 N.am      1 <0>        0.00000
     32 C20         9.2881   -6.1875    0.0000 C.3       1 <0>        0.00000
     33 C21        10.0026   -6.6000    0.0000 C.ar      1 <0>        0.00000
     34 C22        10.7171   -6.1875    0.0000 C.ar      1 <0>        0.00000
     35 C23        11.4315   -6.6000    0.0000 C.ar      1 <0>        0.00000
     36 C24        11.4315   -7.4250    0.0000 C.ar      1 <0>        0.00000
     37 C25        10.7171   -7.8375    0.0000 C.ar      1 <0>        0.00000
     38 C26        10.0026   -7.4250    0.0000 C.ar      1 <0>        0.00000
     39 C27        12.1460   -7.8375    0.0000 C.2       1 <0>        0.00000
     40 N6         12.8605   -7.4250    0.0000 N.pl3     1 <0>        0.00000
     41 N7         12.1460   -8.6625    0.0000 N.2       1 <0>        0.00000
     42 H1          8.5737   -9.0750    0.0000 H         1 <0>        0.00000
     43 H2          7.1447   -9.0750    0.0000 H         1 <0>        0.00000
     44 H3          7.1447   -9.0750    0.0000 H         1 <0>        0.00000
     45 H4          7.8592   -7.8375    0.0000 H         1 <0>        0.00000
     46 H5          7.8592   -7.8375    0.0000 H         1 <0>        0.00000
     47 H6          7.1447   -7.4250    0.0000 H         1 <0>        0.00000
     48 H7          7.1447   -7.4250    0.0000 H         1 <0>        0.00000
     49 H8          7.1447   -6.6000    0.0000 H         1 <0>        0.00000
     50 H9          6.4302   -6.1875    0.0000 H         1 <0>        0.00000
     51 H10         5.0013   -6.1875    0.0000 H         1 <0>        0.00000
     52 H11         4.2868   -6.6000    0.0000 H         1 <0>        0.00000
     53 H12         2.8579   -5.7750    0.0000 H         1 <0>        0.00000
     54 H13         2.8579   -5.7750    0.0000 H         1 <0>        0.00000
     55 H14         2.1434   -7.0125    0.0000 H         1 <0>        0.00000
     56 H15         0.7145   -7.0125    0.0000 H         1 <0>        0.00000
     57 H16         0.7145   -6.1875    0.0000 H         1 <0>        0.00000
     58 H17         1.4289   -5.7750    0.0000 H         1 <0>        0.00000
     59 H18         0.7145   -8.6625    0.0000 H         1 <0>        0.00000
     60 H19         5.0013   -5.3625    0.0000 H         1 <0>        0.00000
     61 H20         5.7158   -4.9500    0.0000 H         1 <0>        0.00000
     62 H21         5.7158   -4.9500    0.0000 H         1 <0>        0.00000
     63 H22         5.7158   -4.9500    0.0000 H         1 <0>        0.00000
     64 H23         4.2868   -4.9500    0.0000 H         1 <0>        0.00000
     65 H24         4.2868   -4.9500    0.0000 H         1 <0>        0.00000
     66 H25         4.2868   -4.1250    0.0000 H         1 <0>        0.00000
     67 H26         4.2868   -4.1250    0.0000 H         1 <0>        0.00000
     68 H27         4.2868   -4.1250    0.0000 H         1 <0>        0.00000
     69 H28         8.5737   -6.6000    0.0000 H         1 <0>        0.00000
     70 H29         9.2881   -6.1875    0.0000 H         1 <0>        0.00000
     71 H30         9.2881   -6.1875    0.0000 H         1 <0>        0.00000
     72 H31        10.7171   -6.1875    0.0000 H         1 <0>        0.00000
     73 H32        11.4315   -6.6000    0.0000 H         1 <0>        0.00000
     74 H33        10.7171   -7.8375    0.0000 H         1 <0>        0.00000
     75 H34        10.0026   -7.4250    0.0000 H         1 <0>        0.00000
     76 H35        12.8605   -7.4250    0.0000 H         1 <0>        0.00000
     77 H36        12.8605   -7.4250    0.0000 H         1 <0>        0.00000
     78 H37        12.1460   -8.6625    0.0000 H         1 <0>        0.00000
@<TRIPOS>BOND
     1    1    2 2
     2    2    3 1
     3    2    4 1
     4    4    5 1
     5    5    6 1
     6    6    7 1
     7    7    8 am
     8    8    9 2
     9    8   10 1
    10   10   11 1
    11   11   12 1
    12   12   13 2
    13   12   14 2
    14   12   15 1
    15   15   16 1
    16   16   17 ar
    17   17   18 ar
    18   18   19 ar
    19   19   20 ar
    20   20   21 ar
    21   16   21 ar
    22   18   22 1
    23   22   23 1
    24   22   24 2
    25   10   25 1
    26   25   26 1
    27   25   27 1
    28   27   28 1
    29    6   29 1
    30   29   30 2
    31   29   31 am
    32   31   32 1
    33   32   33 1
    34   33   34 ar
    35   34   35 ar
    36   35   36 ar
    37   36   37 ar
    38   37   38 ar
    39   33   38 ar
    40   36   39 1
    41   39   40 1
    42   39   41 2
    43    1   42 1
    44    3   43 1
    45    3   44 1
    46    4   45 1
    47    4   46 1
    48    5   47 1
    49    5   48 1
    50    6   49 1
    51    7   50 1
    52   10   51 1
    53   11   52 1
    54   15   53 1
    55   15   54 1
    56   17   55 1
    57   19   56 1
    58   20   57 1
    59   21   58 1
    60   23   59 1
    61   25   60 1
    62   26   61 1
    63   26   62 1
    64   26   63 1
    65   27   64 1
    66   27   65 1
    67   28   66 1
    68   28   67 1
    69   28   68 1
    70   31   69 1
    71   32   70 1
    72   32   71 1
    73   34   72 1
    74   35   73 1
    75   37   74 1
    76   38   75 1
    77   40   76 1
    78   40   77 1
    79   41   78 1
@<TRIPOS>SUBSTRUCTURE
     1 <0>         1 GROUP 0 A     ****
@<TRIPOS>MOLECULE
501
   33    33     1     0     0
SMALL
NO_CHARGES

@<TRIPOS>ATOM
      1 S1          2.8795   -0.9075    0.0000 S.3       1 <0>        0.00000
      2 N1          2.3176   -3.5983    0.0000 N.pl3     1 <0>        0.00000
      3 N2          3.5138    1.1812    0.0000 N.pl3     1 <0>        0.00000
      4 N3          1.9050   -2.3287    0.0000 N.ar      1 <0>        0.00000
      5 N4          3.6631    2.6024    0.0000 N.pl3     1 <0>        0.00000
      6 N5          2.3577    2.0211    0.0000 N.2       1 <0>        0.00000
      7 N6          2.9920    4.1098    0.0000 N.1       1 <0>        0.00000
      8 C1          2.7301   -2.3287    0.0000 C.ar      1 <0>        0.00000
      9 C2          3.2150   -1.6612    0.0000 C.3       1 <0>        0.00000
     10 C3          3.3645   -0.2400    0.0000 C.3       1 <0>        0.00000
     11 C4          3.0288    0.5137    0.0000 C.3       1 <0>        0.00000
     12 C5          2.9850   -3.1133    0.0000 C.ar      1 <0>        0.00000
     13 C6          3.7697   -3.3683    0.0000 C.3       1 <0>        0.00000
     14 C7          1.6501   -3.1133    0.0000 C.ar      1 <0>        0.00000
     15 C8          3.1782    1.9349    0.0000 C.2       1 <0>        0.00000
     16 C9          2.0221    2.7749    0.0000 C.3       1 <0>        0.00000
     17 C10         3.3276    3.3561    0.0000 C.1       1 <0>        0.00000
     18 H1          2.3176   -3.5983    0.0000 H         1 <0>        0.00000
     19 H2          3.5138    1.1812    0.0000 H         1 <0>        0.00000
     20 H3          3.6631    2.6024    0.0000 H         1 <0>        0.00000
     21 H4          3.2150   -1.6612    0.0000 H         1 <0>        0.00000
     22 H5          3.2150   -1.6612    0.0000 H         1 <0>        0.00000
     23 H6          3.3645   -0.2400    0.0000 H         1 <0>        0.00000
     24 H7          3.3645   -0.2400    0.0000 H         1 <0>        0.00000
     25 H8          3.0288    0.5137    0.0000 H         1 <0>        0.00000
     26 H9          3.0288    0.5137    0.0000 H         1 <0>        0.00000
     27 H10         3.7697   -3.3683    0.0000 H         1 <0>        0.00000
     28 H11         3.7697   -3.3683    0.0000 H         1 <0>        0.00000
     29 H12         3.7697   -3.3683    0.0000 H         1 <0>        0.00000
     30 H13         1.6501   -3.1133    0.0000 H         1 <0>        0.00000
     31 H14         2.0221    2.7749    0.0000 H         1 <0>        0.00000
     32 H15         2.0221    2.7749    0.0000 H         1 <0>        0.00000
     33 H16         2.0221    2.7749    0.0000 H         1 <0>        0.00000
@<TRIPOS>BOND
     1    1    9 1
     2    1   10 1
     3    2   12 1
     4    2   14 1
     5    3   11 1
     6    3   15 1
     7    4    8 1
     8    4   14 2
     9    5   15 1
    10    5   17 1
    11    6   15 2
    12    6   16 1
    13    7   17 3
    14    8    9 1
    15    8   12 2
    16   10   11 1
    17   12   13 1
    18    2   18 1
    19    3   19 1
    20    5   20 1
    21    9   21 1
    22    9   22 1
    23   10   23 1
    24   10   24 1
    25   11   25 1
    26   11   26 1
    27   13   27 1
    28   13   28 1
    29   13   29 1
    30   14   30 1
    31   16   31 1
    32   16   32 1
    33   16   33 1
@<TRIPOS>SUBSTRUCTURE
     1 <0>         1 GROUP 0 A     ****
@<TRIPOS>MOLECULE
*****
   77    81     1     0     0
SMALL
NO_CHARGES

@<TRIPOS>ATOM
      1 C1         -4.7534    3.5889    0.0000 C.3       1 <0>        0.00000
      2 N1         -4.3409    2.8744    0.0000 N.4       1 <0>        0.00000
      3 C2         -5.0554    2.4619    0.0000 C.3       1 <0>        0.00000
      4 C3         -3.6265    3.2869    0.0000 C.3       1 <0>        0.00000
      5 C4         -3.9284    2.1599    0.0000 C.ar      1 <0>        0.00000
      6 C5         -3.1034    2.1599    0.0000 C.ar      1 <0>        0.00000
      7 C6         -2.6909    1.4455    0.0000 C.ar      1 <0>        0.00000
      8 C7         -3.1034    0.7310    0.0000 C.ar      1 <0>        0.00000
      9 C8         -2.6909    0.0165    0.0000 C.3       1 <0>        0.00000
     10 N2         -1.8659    0.0165    0.0000 N.am      1 <0>        0.00000
     11 C9         -1.4534   -0.6979    0.0000 C.2       1 <0>        0.00000
     12 O1         -1.8659   -1.4124    0.0000 O.2       1 <0>        0.00000
     13 C10        -0.6284   -0.6979    0.0000 C.ar      1 <0>        0.00000
     14 C11        -0.1435   -1.3654    0.0000 C.ar      1 <0>        0.00000
     15 C12         0.6411   -1.1104    0.0000 C.ar      1 <0>        0.00000
     16 C13         0.6411   -0.2854    0.0000 C.ar      1 <0>        0.00000
     17 C14         1.3556    0.1271    0.0000 C.ar      1 <0>        0.00000
     18 C15         2.0701   -0.2854    0.0000 C.ar      1 <0>        0.00000
     19 C16         2.0701   -1.1104    0.0000 C.ar      1 <0>        0.00000
     20 O2          2.7845   -1.5229    0.0000 O.3       1 <0>        0.00000
     21 C17         2.7845   -2.3479    0.0000 C.3       1 <0>        0.00000
     22 C18         2.0701   -2.7604    0.0000 C.ar      1 <0>        0.00000
     23 C19         2.0701   -3.5854    0.0000 C.ar      1 <0>        0.00000
     24 C20         1.3556   -3.9979    0.0000 C.ar      1 <0>        0.00000
     25 C21         0.6411   -3.5854    0.0000 C.ar      1 <0>        0.00000
     26 C22         0.6411   -2.7604    0.0000 C.ar      1 <0>        0.00000
     27 C23         1.3556   -2.3479    0.0000 C.ar      1 <0>        0.00000
     28 C24         1.3556   -1.5229    0.0000 C.ar      1 <0>        0.00000
     29 N3         -0.1435   -0.0305    0.0000 N.pl3     1 <0>        0.00000
     30 C25        -0.3984    0.7541    0.0000 C.3       1 <0>        0.00000
     31 C26         0.1536    1.3672    0.0000 C.ar      1 <0>        0.00000
     32 C27        -0.1014    2.1518    0.0000 C.ar      1 <0>        0.00000
     33 C28         0.4507    2.7649    0.0000 C.ar      1 <0>        0.00000
     34 C29         1.2577    2.5934    0.0000 C.ar      1 <0>        0.00000
     35 C30         1.5126    1.8088    0.0000 C.ar      1 <0>        0.00000
     36 C31         0.9606    1.1957    0.0000 C.ar      1 <0>        0.00000
     37 C32         2.3196    1.6373    0.0000 C.2       1 <0>        0.00000
     38 N4          2.5745    0.8526    0.0000 N.pl3     1 <0>        0.00000
     39 N5          2.8716    2.2503    0.0000 N.2       1 <0>        0.00000
     40 C33        -3.9284    0.7310    0.0000 C.ar      1 <0>        0.00000
     41 C34        -4.3409    1.4455    0.0000 C.ar      1 <0>        0.00000
     42 H1         -4.7534    3.5889    0.0000 H         1 <0>        0.00000
     43 H2         -4.7534    3.5889    0.0000 H         1 <0>        0.00000
     44 H3         -4.7534    3.5889    0.0000 H         1 <0>        0.00000
     45 H4         -5.0554    2.4619    0.0000 H         1 <0>        0.00000
     46 H5         -5.0554    2.4619    0.0000 H         1 <0>        0.00000
     47 H6         -5.0554    2.4619    0.0000 H         1 <0>        0.00000
     48 H7         -3.6265    3.2869    0.0000 H         1 <0>        0.00000
     49 H8         -3.6265    3.2869    0.0000 H         1 <0>        0.00000
     50 H9         -3.6265    3.2869    0.0000 H         1 <0>        0.00000
     51 H10        -3.1034    2.1599    0.0000 H         1 <0>        0.00000
     52 H11        -2.6909    1.4455    0.0000 H         1 <0>        0.00000
     53 H12        -2.6909    0.0165    0.0000 H         1 <0>        0.00000
     54 H13        -2.6909    0.0165    0.0000 H         1 <0>        0.00000
     55 H14        -1.8659    0.0165    0.0000 H         1 <0>        0.00000
     56 H15        -0.1435   -1.3654    0.0000 H         1 <0>        0.00000
     57 H16         1.3556    0.1271    0.0000 H         1 <0>        0.00000
     58 H17         2.0701   -0.2854    0.0000 H         1 <0>        0.00000
     59 H18         2.7845   -2.3479    0.0000 H         1 <0>        0.00000
     60 H19         2.7845   -2.3479    0.0000 H         1 <0>        0.00000
     61 H20         2.0701   -3.5854    0.0000 H         1 <0>        0.00000
     62 H21         1.3556   -3.9979    0.0000 H         1 <0>        0.00000
     63 H22         0.6411   -3.5854    0.0000 H         1 <0>        0.00000
     64 H23         0.6411   -2.7604    0.0000 H         1 <0>        0.00000
     65 H24         1.3556   -2.3479    0.0000 H         1 <0>        0.00000
     66 H25         1.3556   -1.5229    0.0000 H         1 <0>        0.00000
     67 H26        -0.3984    0.7541    0.0000 H         1 <0>        0.00000
     68 H27        -0.3984    0.7541    0.0000 H         1 <0>        0.00000
     69 H28        -0.1014    2.1518    0.0000 H         1 <0>        0.00000
     70 H29         0.4507    2.7649    0.0000 H         1 <0>        0.00000
     71 H30         1.2577    2.5934    0.0000 H         1 <0>        0.00000
     72 H31         0.9606    1.1957    0.0000 H         1 <0>        0.00000
     73 H32         2.5745    0.8526    0.0000 H         1 <0>        0.00000
     74 H33         2.5745    0.8526    0.0000 H         1 <0>        0.00000
     75 H34         2.8716    2.2503    0.0000 H         1 <0>        0.00000
     76 H35        -3.9284    0.7310    0.0000 H         1 <0>        0.00000
     77 H36        -4.3409    1.4455    0.0000 H         1 <0>        0.00000
@<TRIPOS>BOND
     1    1    2 1
     2    2    3 1
     3    2    4 1
     4    2    5 1
     5    5    6 ar
     6    6    7 ar
     7    7    8 ar
     8    8    9 1
     9    9   10 1
    10   10   11 am
    11   11   12 2
    12   11   13 1
    13   13   14 2
    14   14   15 1
    15   15   16 ar
    16   16   17 ar
    17   17   18 ar
    18   18   19 ar
    19   19   20 1
    20   20   21 1
    21   21   22 1
    22   22   23 ar
    23   23   24 ar
    24   24   25 ar
    25   25   26 ar
    26   26   27 ar
    27   22   27 ar
    28   19   28 ar
    29   15   28 ar
    30   16   29 1
    31   13   29 1
    32   29   30 1
    33   30   31 1
    34   31   32 ar
    35   32   33 ar
    36   33   34 ar
    37   34   35 ar
    38   35   36 ar
    39   31   36 ar
    40   35   37 1
    41   37   38 1
    42   37   39 2
    43    8   40 ar
    44   40   41 ar
    45    5   41 ar
    46    1   42 1
    47    1   43 1
    48    1   44 1
    49    3   45 1
    50    3   46 1
    51    3   47 1
    52    4   48 1
    53    4   49 1
    54    4   50 1
    55    6   51 1
    56    7   52 1
    57    9   53 1
    58    9   54 1
    59   10   55 1
    60   14   56 1
    61   17   57 1
    62   18   58 1
    63   21   59 1
    64   21   60 1
    65   23   61 1
    66   24   62 1
    67   25   63 1
    68   26   64 1
    69   27   65 1
    70   28   66 1
    71   30   67 1
    72   30   68 1
    73   32   69 1
    74   33   70 1
    75   34   71 1
    76   36   72 1
    77   38   73 1
    78   38   74 1
    79   39   75 1
    80   40   76 1
    81   41   77 1
@<TRIPOS>SUBSTRUCTURE
     1 <0>         1 GROUP 0 A     ****
@<TRIPOS>MOLECULE
*****
   61    65     1     0     0
SMALL
NO_CHARGES

@<TRIPOS>ATOM
      1 C1         -2.9056   -2.0855    0.0000 C.3       1 <0>        0.00000
      2 C2         -2.7424   -1.2786    0.0000 C.3       1 <0>        0.00000
      3 O1         -2.7523   -0.4550    0.0000 O.3       1 <0>        0.00000
      4 C3         -1.9679   -0.1956    0.0000 C.3       1 <0>        0.00000
      5 C4         -1.4875    0.4798    0.0000 C.3       1 <0>        0.00000
      6 C5         -0.7049    0.2347    0.0000 C.3       1 <0>        0.00000
      7 C6          0.0066    0.6515    0.0000 C.3       1 <0>        0.00000
      8 C7         -0.0032    1.4753    0.0000 C.3       1 <0>        0.00000
      9 C8          0.7040    1.8964    0.0000 C.3       1 <0>        0.00000
     10 C9          1.4257    1.4894    0.0000 C.2       1 <0>        0.00000
     11 C10         2.1331    1.9107    0.0000 C.2       1 <0>        0.00000
     12 C11         2.8548    1.5039    0.0000 C.2       1 <0>        0.00000
     13 O2          3.5665    1.9250    0.0000 O.2       1 <0>        0.00000
     14 C12         2.8612    0.6822    0.0000 C.2       1 <0>        0.00000
     15 C13         2.1537    0.2610    0.0000 C.2       1 <0>        0.00000
     16 C14         1.4322    0.6637    0.0000 C.3       1 <0>        0.00000
     17 C15         0.7203    0.2468    0.0000 C.3       1 <0>        0.00000
     18 C16         0.7347   -0.5768    0.0000 C.3       1 <0>        0.00000
     19 C17         0.0230   -0.9938    0.0000 C.3       1 <0>        0.00000
     20 C18        -0.6986   -0.5911    0.0000 C.3       1 <0>        0.00000
     21 C19        -1.4788   -0.8545    0.0000 C.3       1 <0>        0.00000
     22 O3         -1.9554   -1.5236    0.0000 O.3       1 <0>        0.00000
     23 C20        -0.8871   -2.0326    0.0000 C.2       1 <0>        0.00000
     24 O4         -0.0638   -2.0815    0.0000 O.2       1 <0>        0.00000
     25 C21        -1.3443   -2.7224    0.0000 C.3       1 <0>        0.00000
     26 O5         -2.1674   -2.6735    0.0000 O.3       1 <0>        0.00000
     27 C22        -0.6269   -1.4151    0.0000 C.3       1 <0>        0.00000
     28 Cl1         1.2647   -1.2047    0.0000 Cl        1 <0>        0.00000
     29 Cl2         1.8773   -0.4012    0.0000 Cl        1 <0>        0.00000
     30 F1          0.6976    2.7224    0.0000 F         1 <0>        0.00000
     31 C23        -3.5665   -1.2025    0.0000 C.3       1 <0>        0.00000
     32 C24         0.6781    1.1010    0.0000 C.3       1 <0>        0.00000
     33 H1         -0.7130    1.0882    0.0000 H         1 <0>        0.00000
     34 H2         -2.5765    0.4096    0.0000 H         1 <0>        0.00000
     35 H3         -0.0002   -0.1956    0.0000 H         1 <0>        0.00000
     36 H4         -2.9056   -2.0855    0.0000 H         1 <0>        0.00000
     37 H5         -2.9056   -2.0855    0.0000 H         1 <0>        0.00000
     38 H6         -2.9056   -2.0855    0.0000 H         1 <0>        0.00000
     39 H7         -1.4875    0.4798    0.0000 H         1 <0>        0.00000
     40 H8         -1.4875    0.4798    0.0000 H         1 <0>        0.00000
     41 H9         -0.0032    1.4753    0.0000 H         1 <0>        0.00000
     42 H10        -0.0032    1.4753    0.0000 H         1 <0>        0.00000
     43 H11         0.7040    1.8964    0.0000 H         1 <0>        0.00000
     44 H12         2.1331    1.9107    0.0000 H         1 <0>        0.00000
     45 H13         2.8612    0.6822    0.0000 H         1 <0>        0.00000
     46 H14         2.1537    0.2610    0.0000 H         1 <0>        0.00000
     47 H15         0.7347   -0.5768    0.0000 H         1 <0>        0.00000
     48 H16         0.0230   -0.9938    0.0000 H         1 <0>        0.00000
     49 H17         0.0230   -0.9938    0.0000 H         1 <0>        0.00000
     50 H18        -1.3443   -2.7224    0.0000 H         1 <0>        0.00000
     51 H19        -1.3443   -2.7224    0.0000 H         1 <0>        0.00000
     52 H20        -2.1674   -2.6735    0.0000 H         1 <0>        0.00000
     53 H21        -0.6269   -1.4151    0.0000 H         1 <0>        0.00000
     54 H22        -0.6269   -1.4151    0.0000 H         1 <0>        0.00000
     55 H23        -0.6269   -1.4151    0.0000 H         1 <0>        0.00000
     56 H24        -3.5665   -1.2025    0.0000 H         1 <0>        0.00000
     57 H25        -3.5665   -1.2025    0.0000 H         1 <0>        0.00000
     58 H26        -3.5665   -1.2025    0.0000 H         1 <0>        0.00000
     59 H27         0.6781    1.1010    0.0000 H         1 <0>        0.00000
     60 H28         0.6781    1.1010    0.0000 H         1 <0>        0.00000
     61 H29         0.6781    1.1010    0.0000 H         1 <0>        0.00000
@<TRIPOS>BOND
     1    4    5 1
     2    5    6 1
     3    6    7 1
     4    7    8 1
     5    8    9 1
     6    9   10 1
     7   10   11 2
     8   11   12 1
     9   12   13 2
    10   12   14 1
    11   14   15 2
    12   15   16 1
    13   10   16 1
    14   16   17 1
    15    7   17 1
    16   17   18 1
    17   18   19 1
    18   19   20 1
    19    6   20 1
    20   20   21 1
    21    4   21 1
    22   21   22 1
    23    2   22 1
    24   21   23 1
    25   23   24 2
    26   23   25 1
    27   25   26 1
    28   20   27 1
    29   18   28 1
    30   17   29 1
    31    9   30 1
    32    2   31 1
    33   16   32 1
    34    1    2 1
    35    6   33 1
    36    2    3 1
    37    4   34 1
    38    3    4 1
    39    7   35 1
    40    1   36 1
    41    1   37 1
    42    1   38 1
    43    5   39 1
    44    5   40 1
    45    8   41 1
    46    8   42 1
    47    9   43 1
    48   11   44 1
    49   14   45 1
    50   15   46 1
    51   18   47 1
    52   19   48 1
    53   19   49 1
    54   25   50 1
    55   25   51 1
    56   26   52 1
    57   27   53 1
    58   27   54 1
    59   27   55 1
    60   31   56 1
    61   31   57 1
    62   31   58 1
    63   32   59 1
    64   32   60 1
    65   32   61 1
@<TRIPOS>SUBSTRUCTURE
     1 <0>         1 GROUP 0 A     ****
@<TRIPOS>MOLECULE
3033968
   49    52     1     0     0
SMALL
NO_CHARGES

@<TRIPOS>ATOM
      1 O1          6.6263    1.5550    0.0000 O.3       1 <0>        0.00000
      2 O2          1.6500   -1.9996    0.0000 O.2       1 <0>        0.00000
      3 C1          6.0993    0.5186    0.0000 C.3       1 <0>        0.00000
      4 C2          5.3849   -0.7189    0.0000 C.3       1 <0>        0.00000
      5 C3          6.0993   -0.3064    0.0000 C.3       1 <0>        0.00000
      6 C4          4.6703   -0.3064    0.0000 C.3       1 <0>        0.00000
      7 C5          5.3849    0.9311    0.0000 C.3       1 <0>        0.00000
      8 C6          4.6703    0.5186    0.0000 C.3       1 <0>        0.00000
      9 C7          3.9196   -0.7246    0.0000 C.3       1 <0>        0.00000
     10 C8          6.8799    0.7700    0.0000 C.3       1 <0>        0.00000
     11 C9          5.3981   -1.5782    0.0000 C.3       1 <0>        0.00000
     12 C10         6.0993    1.3436    0.0000 C.3       1 <0>        0.00000
     13 C11         6.8799   -0.5579    0.0000 C.2       1 <0>        0.00000
     14 C12         3.9130   -1.5839    0.0000 C.2       1 <0>        0.00000
     15 C13         4.6572   -2.0136    0.0000 C.3       1 <0>        0.00000
     16 C14         7.3614    0.1061    0.0000 C.2       1 <0>        0.00000
     17 C15         3.1550   -0.2592    0.0000 C.3       1 <0>        0.00000
     18 C16         5.3849    1.7561    0.0000 C.3       1 <0>        0.00000
     19 C17         2.3729   -0.6948    0.0000 C.3       1 <0>        0.00000
     20 C18         3.1413   -2.0374    0.0000 C.2       1 <0>        0.00000
     21 C19         7.5482    1.2538    0.0000 C.1       1 <0>        0.00000
     22 C20         2.3661   -1.5899    0.0000 C.2       1 <0>        0.00000
     23 C21         8.2165    1.7375    0.0000 C.1       1 <0>        0.00000
     24 H1          6.6263    1.5550    0.0000 H         1 <0>        0.00000
     25 H2          5.3849   -0.7189    0.0000 H         1 <0>        0.00000
     26 H3          6.0993   -0.3064    0.0000 H         1 <0>        0.00000
     27 H4          4.6703   -0.3064    0.0000 H         1 <0>        0.00000
     28 H5          5.3849    0.9311    0.0000 H         1 <0>        0.00000
     29 H6          5.3849    0.9311    0.0000 H         1 <0>        0.00000
     30 H7          4.6703    0.5186    0.0000 H         1 <0>        0.00000
     31 H8          4.6703    0.5186    0.0000 H         1 <0>        0.00000
     32 H9          3.9196   -0.7246    0.0000 H         1 <0>        0.00000
     33 H10         5.3981   -1.5782    0.0000 H         1 <0>        0.00000
     34 H11         5.3981   -1.5782    0.0000 H         1 <0>        0.00000
     35 H12         6.0993    1.3436    0.0000 H         1 <0>        0.00000
     36 H13         6.0993    1.3436    0.0000 H         1 <0>        0.00000
     37 H14         6.8799   -0.5579    0.0000 H         1 <0>        0.00000
     38 H15         4.6572   -2.0136    0.0000 H         1 <0>        0.00000
     39 H16         4.6572   -2.0136    0.0000 H         1 <0>        0.00000
     40 H17         7.3614    0.1061    0.0000 H         1 <0>        0.00000
     41 H18         3.1550   -0.2592    0.0000 H         1 <0>        0.00000
     42 H19         3.1550   -0.2592    0.0000 H         1 <0>        0.00000
     43 H20         5.3849    1.7561    0.0000 H         1 <0>        0.00000
     44 H21         5.3849    1.7561    0.0000 H         1 <0>        0.00000
     45 H22         5.3849    1.7561    0.0000 H         1 <0>        0.00000
     46 H23         2.3729   -0.6948    0.0000 H         1 <0>        0.00000
     47 H24         2.3729   -0.6948    0.0000 H         1 <0>        0.00000
     48 H25         3.1413   -2.0374    0.0000 H         1 <0>        0.00000
     49 H26         8.2165    1.7375    0.0000 H         1 <0>        0.00000
@<TRIPOS>BOND
     1    1   10 1
     2    2   22 2
     3    3    5 1
     4    3    7 1
     5    3   10 1
     6    3   12 1
     7    4    5 1
     8    4    6 1
     9    4   11 1
    10    5   13 1
    11    6    8 1
    12    6    9 1
    13    7    8 1
    14    9   14 1
    15    9   17 1
    16   10   16 1
    17   10   21 1
    18   11   15 1
    19   12   18 1
    20   13   16 2
    21   14   15 1
    22   14   20 2
    23   17   19 1
    24   19   22 1
    25   20   22 1
    26   21   23 3
    27    1   24 1
    28    4   25 1
    29    5   26 1
    30    6   27 1
    31    7   28 1
    32    7   29 1
    33    8   30 1
    34    8   31 1
    35    9   32 1
    36   11   33 1
    37   11   34 1
    38   12   35 1
    39   12   36 1
    40   13   37 1
    41   15   38 1
    42   15   39 1
    43   16   40 1
    44   17   41 1
    45   17   42 1
    46   18   43 1
    47   18   44 1
    48   18   45 1
    49   19   46 1
    50   19   47 1
    51   20   48 1
    52   23   49 1
@<TRIPOS>SUBSTRUCTURE
     1 <0>         1 GROUP 0 A     ****
@<TRIPOS>MOLECULE
BIP
   24    24     1     0     0
SMALL
NO_CHARGES

@<TRIPOS>ATOM
      1 C1          1.5808    1.1185    0.0000 C.2       1 <0>        0.00000
      2 O1          1.5808    1.9435    0.0000 O.2       1 <0>        0.00000
      3 O2          2.2953    0.7060    0.0000 O.3       1 <0>        0.00000
      4 C2          0.8663    0.7060    0.0000 C.3       1 <0>        0.00000
      5 C3          0.1518    1.1185    0.0000 C.3       1 <0>        0.00000
      6 I1         -0.5626    0.7060    0.0000 I         1 <0>        0.00000
      7 C4          0.8663   -0.1190    0.0000 C.3       1 <0>        0.00000
      8 C5          0.1518   -0.5315    0.0000 C.ar      1 <0>        0.00000
      9 C6          0.1518   -1.3565    0.0000 C.ar      1 <0>        0.00000
     10 C7         -0.5626   -1.7690    0.0000 C.ar      1 <0>        0.00000
     11 C8         -1.2771   -1.3565    0.0000 C.ar      1 <0>        0.00000
     12 C9         -1.2771   -0.5315    0.0000 C.ar      1 <0>        0.00000
     13 C10        -0.5626   -0.1190    0.0000 C.ar      1 <0>        0.00000
     14 H1          0.8663    1.2899    0.0000 H         1 <0>        0.00000
     15 H2          2.2953    0.7060    0.0000 H         1 <0>        0.00000
     16 H3          0.1518    1.1185    0.0000 H         1 <0>        0.00000
     17 H4          0.1518    1.1185    0.0000 H         1 <0>        0.00000
     18 H5          0.8663   -0.1190    0.0000 H         1 <0>        0.00000
     19 H6          0.8663   -0.1190    0.0000 H         1 <0>        0.00000
     20 H7          0.1518   -1.3565    0.0000 H         1 <0>        0.00000
     21 H8         -0.5626   -1.7690    0.0000 H         1 <0>        0.00000
     22 H9         -1.2771   -1.3565    0.0000 H         1 <0>        0.00000
     23 H10        -1.2771   -0.5315    0.0000 H         1 <0>        0.00000
     24 H11        -0.5626   -0.1190    0.0000 H         1 <0>        0.00000
@<TRIPOS>BOND
     1    1    2 2
     2    1    3 1
     3    1    4 1
     4    4    5 1
     5    4    7 1
     6    4   14 1
     7    5    6 1
     8    7    8 1
     9    8    9 ar
    10    8   13 ar
    11    9   10 ar
    12   10   11 ar
    13   11   12 ar
    14   12   13 ar
    15    3   15 1
    16    5   16 1
    17    5   17 1
    18    7   18 1
    19    7   19 1
    20    9   20 1
    21   10   21 1
    22   11   22 1
    23   12   23 1
    24   13   24 1
@<TRIPOS>SUBSTRUCTURE
     1 <0>         1 GROUP 0 A     ****
@<TRIPOS>MOLECULE
*****
   33    33     1     0     0
SMALL
NO_CHARGES

@<TRIPOS>ATOM
      1 C1         -0.4950   -3.2926    0.0000 C.3       1 <0>        0.00000
      2 C2          0.0884   -2.7092    0.0000 C.3       1 <0>        0.00000
      3 C3          0.6718   -3.2926    0.0000 C.3       1 <0>        0.00000
      4 N1          0.4582   -4.0895    0.0000 N.pl3     1 <0>        0.00000
      5 C4          0.9774   -4.7306    0.0000 C.ar      1 <0>        0.00000
      6 C5          0.5281   -5.4225    0.0000 C.ar      1 <0>        0.00000
      7 N2         -0.2688   -5.2090    0.0000 N.ar      1 <0>        0.00000
      8 N3         -0.3120   -4.3852    0.0000 N.ar      1 <0>        0.00000
      9 C6         -0.4950   -2.1259    0.0000 C.3       1 <0>        0.00000
     10 N4         -0.2814   -1.3290    0.0000 N.pl3     1 <0>        0.00000
     11 C7         -0.8648   -0.7456    0.0000 C.2       1 <0>        0.00000
     12 C8         -0.6513    0.0513    0.0000 C.2       1 <0>        0.00000
     13 C9         -1.2346    0.6346    0.0000 C.2       1 <0>        0.00000
     14 O1         -2.0315    0.4211    0.0000 O.2       1 <0>        0.00000
     15 C10        -1.2919   -2.3394    0.0000 C.2       1 <0>        0.00000
     16 O2         -1.5054   -3.1363    0.0000 O.3       1 <0>        0.00000
     17 O3         -1.8752   -1.7560    0.0000 O.2       1 <0>        0.00000
     18 S1          0.6718   -2.1259    0.0000 S.o2      1 <0>        0.00000
     19 O4          0.4582   -1.3290    0.0000 O.2       1 <0>        0.00000
     20 O5          1.4686   -2.3394    0.0000 O.2       1 <0>        0.00000
     21 H1         -0.4950   -3.2926    0.0000 H         1 <0>        0.00000
     22 H2         -0.4950   -3.2926    0.0000 H         1 <0>        0.00000
     23 H3         -0.4950   -3.2926    0.0000 H         1 <0>        0.00000
     24 H4          0.6718   -3.2926    0.0000 H         1 <0>        0.00000
     25 H5          0.6718   -3.2926    0.0000 H         1 <0>        0.00000
     26 H6          0.9774   -4.7306    0.0000 H         1 <0>        0.00000
     27 H7          0.5281   -5.4225    0.0000 H         1 <0>        0.00000
     28 H8         -0.4950   -2.1259    0.0000 H         1 <0>        0.00000
     29 H9         -0.2814   -1.3290    0.0000 H         1 <0>        0.00000
     30 H10        -0.8648   -0.7456    0.0000 H         1 <0>        0.00000
     31 H11        -0.6513    0.0513    0.0000 H         1 <0>        0.00000
     32 H12        -1.2346    0.6346    0.0000 H         1 <0>        0.00000
     33 H13        -1.5054   -3.1363    0.0000 H         1 <0>        0.00000
@<TRIPOS>BOND
     1    1    2 1
     2    2    3 1
     3    3    4 1
     4    4    5 1
     5    5    6 2
     6    6    7 1
     7    7    8 2
     8    4    8 1
     9    2    9 1
    10    9   10 1
    11   10   11 1
    12   11   12 2
    13   12   13 1
    14   13   14 2
    15    9   15 1
    16   15   16 1
    17   15   17 2
    18    2   18 1
    19   18   19 2
    20   18   20 2
    21    1   21 1
    22    1   22 1
    23    1   23 1
    24    3   24 1
    25    3   25 1
    26    5   26 1
    27    6   27 1
    28    9   28 1
    29   10   29 1
    30   11   30 1
    31   12   31 1
    32   13   32 1
    33   16   33 1
@<TRIPOS>SUBSTRUCTURE
     1 <0>         1 GROUP 0 A     ****
@<TRIPOS>MOLECULE
*****
   15    14     1     0     0
SMALL
NO_CHARGES

@<TRIPOS>ATOM
      1 O1         -0.1914    0.7145    0.0000 O.3       1 <0>        0.00000
      2 C1          0.5230    1.1270    0.0000 C.3       1 <0>        0.00000
      3 C2          1.2375    0.7145    0.0000 C.3       1 <0>        0.00000
      4 O2          1.2375   -0.1105    0.0000 O.3       1 <0>        0.00000
      5 C3          1.9520    1.1270    0.0000 C.3       1 <0>        0.00000
      6 S1          2.6664    0.7145    0.0000 S.3       1 <0>        0.00000
      7 O3          3.3809    1.1270    0.0000 O.3       1 <0>        0.00000
      8 H1         -0.1914    0.7145    0.0000 H         1 <0>        0.00000
      9 H2          0.5230    1.1270    0.0000 H         1 <0>        0.00000
     10 H3          0.5230    1.1270    0.0000 H         1 <0>        0.00000
     11 H4          1.2375    0.7145    0.0000 H         1 <0>        0.00000
     12 H5          1.2375   -0.1105    0.0000 H         1 <0>        0.00000
     13 H6          1.9520    1.1270    0.0000 H         1 <0>        0.00000
     14 H7          1.9520    1.1270    0.0000 H         1 <0>        0.00000
     15 H8          3.3809    1.1270    0.0000 H         1 <0>        0.00000
@<TRIPOS>BOND
     1    1    2 1
     2    2    3 1
     3    3    4 1
     4    3    5 1
     5    5    6 1
     6    6    7 1
     7    1    8 1
     8    2    9 1
     9    2   10 1
    10    3   11 1
    11    4   12 1
    12    5   13 1
    13    5   14 1
    14    7   15 1
@<TRIPOS>SUBSTRUCTURE
     1 <0>         1 GROUP 0 A     ****
@<TRIPOS>MOLECULE
PU9
   51    53     1     0     0
SMALL
NO_CHARGES

@<TRIPOS>ATOM
      1 Cl1         0.2648   -2.1853    0.0000 Cl        1 <0>        0.00000
      2 C1         -0.3483   -1.6333    0.0000 C.ar      1 <0>        0.00000
      3 C2         -1.1330   -1.8882    0.0000 C.ar      1 <0>        0.00000
      4 O1         -1.3045   -2.6952    0.0000 O.3       1 <0>        0.00000
      5 C3         -2.0891   -2.9501    0.0000 C.3       1 <0>        0.00000
      6 C4         -1.7461   -1.3362    0.0000 C.ar      1 <0>        0.00000
      7 O2         -2.5307   -1.5911    0.0000 O.3       1 <0>        0.00000
      8 C5         -3.1438   -1.0391    0.0000 C.3       1 <0>        0.00000
      9 C6         -1.5745   -0.5292    0.0000 C.ar      1 <0>        0.00000
     10 O3         -2.1876    0.0228    0.0000 O.3       1 <0>        0.00000
     11 C7         -2.0161    0.8298    0.0000 C.3       1 <0>        0.00000
     12 C8         -0.7899   -0.2743    0.0000 C.ar      1 <0>        0.00000
     13 C9         -0.1768   -0.8263    0.0000 C.ar      1 <0>        0.00000
     14 C10         0.6078   -0.5714    0.0000 C.3       1 <0>        0.00000
     15 C11         0.7793    0.2356    0.0000 C.ar      1 <0>        0.00000
     16 N1          0.2273    0.8487    0.0000 N.ar      1 <0>        0.00000
     17 C12         0.6398    1.5632    0.0000 C.ar      1 <0>        0.00000
     18 C13         0.3849    2.3478    0.0000 C.ar      1 <0>        0.00000
     19 N2         -0.4221    2.5193    0.0000 N.pl3     1 <0>        0.00000
     20 C14         1.4468    1.3916    0.0000 C.ar      1 <0>        0.00000
     21 N3          1.9988    2.0047    0.0000 N.ar      1 <0>        0.00000
     22 C15         1.7439    2.7894    0.0000 C.ar      1 <0>        0.00000
     23 N4          0.9369    2.9609    0.0000 N.ar      1 <0>        0.00000
     24 N5          1.5330    0.5712    0.0000 N.pl3     1 <0>        0.00000
     25 C16         2.2475    0.1587    0.0000 C.3       1 <0>        0.00000
     26 C17         2.9619    0.5712    0.0000 C.3       1 <0>        0.00000
     27 C18         3.6764    0.1587    0.0000 C.3       1 <0>        0.00000
     28 C19         4.3909    0.5712    0.0000 C.1       1 <0>        0.00000
     29 C20         5.1054    0.9837    0.0000 C.1       1 <0>        0.00000
     30 H1         -2.0891   -2.9501    0.0000 H         1 <0>        0.00000
     31 H2         -2.0891   -2.9501    0.0000 H         1 <0>        0.00000
     32 H3         -2.0891   -2.9501    0.0000 H         1 <0>        0.00000
     33 H4         -3.1438   -1.0391    0.0000 H         1 <0>        0.00000
     34 H5         -3.1438   -1.0391    0.0000 H         1 <0>        0.00000
     35 H6         -3.1438   -1.0391    0.0000 H         1 <0>        0.00000
     36 H7         -2.0161    0.8298    0.0000 H         1 <0>        0.00000
     37 H8         -2.0161    0.8298    0.0000 H         1 <0>        0.00000
     38 H9         -2.0161    0.8298    0.0000 H         1 <0>        0.00000
     39 H10        -0.7899   -0.2743    0.0000 H         1 <0>        0.00000
     40 H11         0.6078   -0.5714    0.0000 H         1 <0>        0.00000
     41 H12         0.6078   -0.5714    0.0000 H         1 <0>        0.00000
     42 H13        -0.4221    2.5193    0.0000 H         1 <0>        0.00000
     43 H14        -0.4221    2.5193    0.0000 H         1 <0>        0.00000
     44 H15         1.7439    2.7894    0.0000 H         1 <0>        0.00000
     45 H16         2.2475    0.1587    0.0000 H         1 <0>        0.00000
     46 H17         2.2475    0.1587    0.0000 H         1 <0>        0.00000
     47 H18         2.9619    0.5712    0.0000 H         1 <0>        0.00000
     48 H19         2.9619    0.5712    0.0000 H         1 <0>        0.00000
     49 H20         3.6764    0.1587    0.0000 H         1 <0>        0.00000
     50 H21         3.6764    0.1587    0.0000 H         1 <0>        0.00000
     51 H22         5.1054    0.9837    0.0000 H         1 <0>        0.00000
@<TRIPOS>BOND
     1    1    2 1
     2    2    3 ar
     3    2   13 ar
     4    3    4 1
     5    3    6 ar
     6    4    5 1
     7    6    7 1
     8    6    9 ar
     9    7    8 1
    10    9   10 1
    11    9   12 ar
    12   10   11 1
    13   12   13 ar
    14   13   14 1
    15   14   15 1
    16   15   16 2
    17   15   24 1
    18   16   17 1
    19   17   18 ar
    20   17   20 ar
    21   18   19 1
    22   18   23 ar
    23   20   21 ar
    24   20   24 1
    25   21   22 ar
    26   22   23 ar
    27   24   25 1
    28   25   26 1
    29   26   27 1
    30   27   28 1
    31   28   29 3
    32    5   30 1
    33    5   31 1
    34    5   32 1
    35    8   33 1
    36    8   34 1
    37    8   35 1
    38   11   36 1
    39   11   37 1
    40   11   38 1
    41   12   39 1
    42   14   40 1
    43   14   41 1
    44   19   42 1
    45   19   43 1
    46   22   44 1
    47   25   45 1
    48   25   46 1
    49   26   47 1
    50   26   48 1
    51   27   49 1
    52   27   50 1
    53   29   51 1
@<TRIPOS>SUBSTRUCTURE
     1 <0>         1 GROUP 0 A     ****
@<TRIPOS>MOLECULE
NBL
   52    53     1     0     0
SMALL
NO_CHARGES

@<TRIPOS>ATOM
      1 C1          0.7792   -1.9404    0.0000 C.3       1 <0>        0.00000
      2 C2          0.7792   -1.1154    0.0000 C.3       1 <0>        0.00000
      3 C3          1.4937   -0.7029    0.0000 C.3       1 <0>        0.00000
      4 C4          0.0647   -0.7029    0.0000 C.3       1 <0>        0.00000
      5 C5          0.0647    0.1221    0.0000 C.3       1 <0>        0.00000
      6 N1         -0.6497    0.5346    0.0000 N.am      1 <0>        0.00000
      7 C6         -1.3642    0.1221    0.0000 C.2       1 <0>        0.00000
      8 O1         -1.3642   -0.7029    0.0000 O.2       1 <0>        0.00000
      9 O2         -2.0787    0.5346    0.0000 O.3       1 <0>        0.00000
     10 C7         -2.7932    0.1221    0.0000 C.3       1 <0>        0.00000
     11 C8         -3.5076    0.5346    0.0000 C.ar      1 <0>        0.00000
     12 C9         -4.2221    0.1221    0.0000 C.ar      1 <0>        0.00000
     13 C10        -4.9366    0.5346    0.0000 C.ar      1 <0>        0.00000
     14 C11        -4.9366    1.3596    0.0000 C.ar      1 <0>        0.00000
     15 C12        -4.2221    1.7721    0.0000 C.ar      1 <0>        0.00000
     16 C13        -3.5076    1.3596    0.0000 C.ar      1 <0>        0.00000
     17 C14         0.7792    0.5346    0.0000 C.2       1 <0>        0.00000
     18 O3          0.7792    1.3596    0.0000 O.2       1 <0>        0.00000
     19 N2          1.4937    0.1221    0.0000 N.am      1 <0>        0.00000
     20 C15         2.2081    0.5346    0.0000 C.3       1 <0>        0.00000
     21 C16         2.2944    1.3551    0.0000 C.3       1 <0>        0.00000
     22 C17         3.1013    1.5266    0.0000 C.3       1 <0>        0.00000
     23 N3          3.5138    0.8121    0.0000 N.3       1 <0>        0.00000
     24 C18         2.9618    0.1990    0.0000 C.3       1 <0>        0.00000
     25 C19         4.3343    0.7259    0.0000 C.1       1 <0>        0.00000
     26 N4          5.1548    0.6397    0.0000 N.1       1 <0>        0.00000
     27 H1         -0.4410   -0.1699    0.0000 H         1 <0>        0.00000
     28 H2          1.7184    0.8526    0.0000 H         1 <0>        0.00000
     29 H3          0.7792   -1.9404    0.0000 H         1 <0>        0.00000
     30 H4          0.7792   -1.9404    0.0000 H         1 <0>        0.00000
     31 H5          0.7792   -1.9404    0.0000 H         1 <0>        0.00000
     32 H6          0.7792   -1.1154    0.0000 H         1 <0>        0.00000
     33 H7          1.4937   -0.7029    0.0000 H         1 <0>        0.00000
     34 H8          1.4937   -0.7029    0.0000 H         1 <0>        0.00000
     35 H9          1.4937   -0.7029    0.0000 H         1 <0>        0.00000
     36 H10         0.0647   -0.7029    0.0000 H         1 <0>        0.00000
     37 H11         0.0647   -0.7029    0.0000 H         1 <0>        0.00000
     38 H12        -0.6497    0.5346    0.0000 H         1 <0>        0.00000
     39 H13        -2.7932    0.1221    0.0000 H         1 <0>        0.00000
     40 H14        -2.7932    0.1221    0.0000 H         1 <0>        0.00000
     41 H15        -4.2221    0.1221    0.0000 H         1 <0>        0.00000
     42 H16        -4.9366    0.5346    0.0000 H         1 <0>        0.00000
     43 H17        -4.9366    1.3596    0.0000 H         1 <0>        0.00000
     44 H18        -4.2221    1.7721    0.0000 H         1 <0>        0.00000
     45 H19        -3.5076    1.3596    0.0000 H         1 <0>        0.00000
     46 H20         1.4937    0.1221    0.0000 H         1 <0>        0.00000
     47 H21         2.2944    1.3551    0.0000 H         1 <0>        0.00000
     48 H22         2.2944    1.3551    0.0000 H         1 <0>        0.00000
     49 H23         3.1013    1.5266    0.0000 H         1 <0>        0.00000
     50 H24         3.1013    1.5266    0.0000 H         1 <0>        0.00000
     51 H25         2.9618    0.1990    0.0000 H         1 <0>        0.00000
     52 H26         2.9618    0.1990    0.0000 H         1 <0>        0.00000
@<TRIPOS>BOND
     1    1    2 1
     2    2    3 1
     3    2    4 1
     4    4    5 1
     5    5    6 1
     6    5   17 1
     7    5   27 1
     8    6    7 am
     9    7    8 2
    10    7    9 1
    11    9   10 1
    12   10   11 1
    13   11   12 ar
    14   11   16 ar
    15   12   13 ar
    16   13   14 ar
    17   14   15 ar
    18   15   16 ar
    19   17   18 2
    20   17   19 am
    21   19   20 1
    22   20   21 1
    23   20   24 1
    24   20   28 1
    25   21   22 1
    26   22   23 1
    27   23   24 1
    28   23   25 1
    29   25   26 3
    30    1   29 1
    31    1   30 1
    32    1   31 1
    33    2   32 1
    34    3   33 1
    35    3   34 1
    36    3   35 1
    37    4   36 1
    38    4   37 1
    39    6   38 1
    40   10   39 1
    41   10   40 1
    42   12   41 1
    43   13   42 1
    44   14   43 1
    45   15   44 1
    46   16   45 1
    47   19   46 1
    48   21   47 1
    49   21   48 1
    50   22   49 1
    51   22   50 1
    52   24   51 1
    53   24   52 1
@<TRIPOS>SUBSTRUCTURE
     1 <0>         1 GROUP 0 A     ****
@<TRIPOS>MOLECULE
*****
   10     9     1     0     0
SMALL
NO_CHARGES

@<TRIPOS>ATOM
      1 P1          2.8075   -0.2615    0.0000 P.3       1 <0>        0.00000
      2 O1          2.0930   -0.6740    0.0000 O.3       1 <0>        0.00000
      3 O2          2.3950    0.4529    0.0000 O.3       1 <0>        0.00000
      4 O3          3.2200   -0.9760    0.0000 O.2       1 <0>        0.00000
      5 O4          4.2365   -0.2615    0.0000 O.3       1 <0>        0.00000
      6 O5          3.5220    0.9760    0.0000 O.2       1 <0>        0.00000
      7 C1          3.5220    0.1510    0.0000 C.2       1 <0>        0.00000
      8 H1          2.0930   -0.6740    0.0000 H         1 <0>        0.00000
      9 H2          2.3950    0.4529    0.0000 H         1 <0>        0.00000
     10 H3          4.2365   -0.2615    0.0000 H         1 <0>        0.00000
@<TRIPOS>BOND
     1    1    2 1
     2    1    3 1
     3    1    4 2
     4    1    7 1
     5    5    7 1
     6    6    7 2
     7    2    8 1
     8    3    9 1
     9    5   10 1
@<TRIPOS>SUBSTRUCTURE
     1 <0>         1 GROUP 0 A     ****
@<TRIPOS>MOLECULE
530
   52    54     1     0     0
SMALL
NO_CHARGES

@<TRIPOS>ATOM
      1 O1          4.5080    0.2782    0.0000 O.3       1 <0>        0.00000
      2 O2          4.5080    1.9282    0.0000 O.3       1 <0>        0.00000
      3 O3          2.3645    0.6907    0.0000 O.3       1 <0>        0.00000
      4 O4          3.7935    3.9908    0.0000 O.3       1 <0>        0.00000
      5 N1          7.3795   -0.5754    0.0000 N.pl3     1 <0>        0.00000
      6 N2          7.3889    1.9568    0.0000 N.ar      1 <0>        0.00000
      7 N3          8.1365    0.6735    0.0000 N.ar      1 <0>        0.00000
      8 C1          6.6515    0.6907    0.0000 C.ar      1 <0>        0.00000
      9 C2          6.6515    1.5157    0.0000 C.ar      1 <0>        0.00000
     10 C3          5.2224    0.6907    0.0000 C.ar      1 <0>        0.00000
     11 C4          5.2224    1.5157    0.0000 C.ar      1 <0>        0.00000
     12 C5          5.9370    0.2782    0.0000 C.ar      1 <0>        0.00000
     13 C6          7.3889    0.2496    0.0000 C.ar      1 <0>        0.00000
     14 C7          5.9370    1.9282    0.0000 C.ar      1 <0>        0.00000
     15 C8          3.7935    0.6907    0.0000 C.3       1 <0>        0.00000
     16 C9          8.0891   -0.9961    0.0000 C.ar      1 <0>        0.00000
     17 C10         4.5080    2.7533    0.0000 C.3       1 <0>        0.00000
     18 C11         8.1365    1.5329    0.0000 C.ar      1 <0>        0.00000
     19 C12         3.0791    0.2782    0.0000 C.3       1 <0>        0.00000
     20 C13         3.7935    3.1658    0.0000 C.3       1 <0>        0.00000
     21 C14         8.0796   -1.8211    0.0000 C.ar      1 <0>        0.00000
     22 C15         8.8083   -0.5920    0.0000 C.ar      1 <0>        0.00000
     23 C16         8.7892   -2.2418    0.0000 C.ar      1 <0>        0.00000
     24 C17         9.5180   -1.0126    0.0000 C.ar      1 <0>        0.00000
     25 C18         9.5084   -1.8376    0.0000 C.ar      1 <0>        0.00000
     26 C19         1.6500    0.2782    0.0000 C.3       1 <0>        0.00000
     27 C20         3.0791    4.4033    0.0000 C.3       1 <0>        0.00000
     28 C21         8.7797   -3.0668    0.0000 C.1       1 <0>        0.00000
     29 C22         8.7701   -3.8918    0.0000 C.1       1 <0>        0.00000
     30 H1          7.3795   -0.5754    0.0000 H         1 <0>        0.00000
     31 H2          5.9370    0.2782    0.0000 H         1 <0>        0.00000
     32 H3          5.9370    1.9282    0.0000 H         1 <0>        0.00000
     33 H4          3.7935    0.6907    0.0000 H         1 <0>        0.00000
     34 H5          3.7935    0.6907    0.0000 H         1 <0>        0.00000
     35 H6          4.5080    2.7533    0.0000 H         1 <0>        0.00000
     36 H7          4.5080    2.7533    0.0000 H         1 <0>        0.00000
     37 H8          8.1365    1.5329    0.0000 H         1 <0>        0.00000
     38 H9          3.0791    0.2782    0.0000 H         1 <0>        0.00000
     39 H10         3.0791    0.2782    0.0000 H         1 <0>        0.00000
     40 H11         3.7935    3.1658    0.0000 H         1 <0>        0.00000
     41 H12         3.7935    3.1658    0.0000 H         1 <0>        0.00000
     42 H13         8.0796   -1.8211    0.0000 H         1 <0>        0.00000
     43 H14         8.8083   -0.5920    0.0000 H         1 <0>        0.00000
     44 H15         9.5180   -1.0126    0.0000 H         1 <0>        0.00000
     45 H16         9.5084   -1.8376    0.0000 H         1 <0>        0.00000
     46 H17         1.6500    0.2782    0.0000 H         1 <0>        0.00000
     47 H18         1.6500    0.2782    0.0000 H         1 <0>        0.00000
     48 H19         1.6500    0.2782    0.0000 H         1 <0>        0.00000
     49 H20         3.0791    4.4033    0.0000 H         1 <0>        0.00000
     50 H21         3.0791    4.4033    0.0000 H         1 <0>        0.00000
     51 H22         3.0791    4.4033    0.0000 H         1 <0>        0.00000
     52 H23         8.7701   -3.8918    0.0000 H         1 <0>        0.00000
@<TRIPOS>BOND
     1    1   10 1
     2    1   15 1
     3    2   11 1
     4    2   17 1
     5    3   19 1
     6    3   26 1
     7    4   20 1
     8    4   27 1
     9    5   13 1
    10    5   16 1
    11    6    9 ar
    12    6   18 ar
    13    7   13 ar
    14    7   18 ar
    15    8    9 ar
    16    8   12 ar
    17    8   13 ar
    18    9   14 ar
    19   10   11 ar
    20   10   12 ar
    21   11   14 ar
    22   15   19 1
    23   16   21 ar
    24   16   22 ar
    25   17   20 1
    26   21   23 ar
    27   22   24 ar
    28   23   25 ar
    29   23   28 1
    30   24   25 ar
    31   28   29 3
    32    5   30 1
    33   12   31 1
    34   14   32 1
    35   15   33 1
    36   15   34 1
    37   17   35 1
    38   17   36 1
    39   18   37 1
    40   19   38 1
    41   19   39 1
    42   20   40 1
    43   20   41 1
    44   21   42 1
    45   22   43 1
    46   24   44 1
    47   25   45 1
    48   26   46 1
    49   26   47 1
    50   26   48 1
    51   27   49 1
    52   27   50 1
    53   27   51 1
    54   29   52 1
@<TRIPOS>SUBSTRUCTURE
     1 <0>         1 GROUP 0 A     ****
@<TRIPOS>MOLECULE
GWB
   37    39     1     0     0
SMALL
NO_CHARGES

@<TRIPOS>ATOM
      1 C1          0.2765    1.0395    0.0000 C.1       1 <0>        0.00000
      2 C2         -0.4380    1.4520    0.0000 C.1       1 <0>        0.00000
      3 C3         -1.1524    1.8645    0.0000 C.3       1 <0>        0.00000
      4 C4         -1.9774    1.8645    0.0000 C.3       1 <0>        0.00000
      5 C5         -1.5649    2.5790    0.0000 C.3       1 <0>        0.00000
      6 N1          0.9910   -1.8480    0.0000 N.am      1 <0>        0.00000
      7 C6          0.2765   -1.4355    0.0000 C.ar      1 <0>        0.00000
      8 O1         -0.4380   -1.8480    0.0000 O.2       1 <0>        0.00000
      9 C7          0.2765   -0.6105    0.0000 C.ar      1 <0>        0.00000
     10 C8          0.9910   -0.1980    0.0000 C.ar      1 <0>        0.00000
     11 O2          0.9910    0.6270    0.0000 O.3       1 <0>        0.00000
     12 C9          1.7054   -1.4355    0.0000 C.ar      1 <0>        0.00000
     13 C10         1.7054   -0.6105    0.0000 C.ar      1 <0>        0.00000
     14 C11         2.4199   -0.1980    0.0000 C.ar      1 <0>        0.00000
     15 C12         3.1344   -0.6105    0.0000 C.ar      1 <0>        0.00000
     16 C13         3.1344   -1.4355    0.0000 C.ar      1 <0>        0.00000
     17 C14         2.4199   -1.8480    0.0000 C.ar      1 <0>        0.00000
     18 F1          3.8489   -0.1980    0.0000 F         1 <0>        0.00000
     19 C15        -0.4380   -0.1980    0.0000 C.3       1 <0>        0.00000
     20 C16        -0.4380    0.6270    0.0000 C.3       1 <0>        0.00000
     21 C17        -1.1524   -0.6105    0.0000 C.3       1 <0>        0.00000
     22 H1         -1.1524    1.8645    0.0000 H         1 <0>        0.00000
     23 H2         -1.9774    1.8645    0.0000 H         1 <0>        0.00000
     24 H3         -1.9774    1.8645    0.0000 H         1 <0>        0.00000
     25 H4         -1.5649    2.5790    0.0000 H         1 <0>        0.00000
     26 H5         -1.5649    2.5790    0.0000 H         1 <0>        0.00000
     27 H6          0.9910   -1.8480    0.0000 H         1 <0>        0.00000
     28 H7          2.4199   -0.1980    0.0000 H         1 <0>        0.00000
     29 H8          3.1344   -1.4355    0.0000 H         1 <0>        0.00000
     30 H9          2.4199   -1.8480    0.0000 H         1 <0>        0.00000
     31 H10        -0.4380   -0.1980    0.0000 H         1 <0>        0.00000
     32 H11        -0.4380    0.6270    0.0000 H         1 <0>        0.00000
     33 H12        -0.4380    0.6270    0.0000 H         1 <0>        0.00000
     34 H13        -0.4380    0.6270    0.0000 H         1 <0>        0.00000
     35 H14        -1.1524   -0.6105    0.0000 H         1 <0>        0.00000
     36 H15        -1.1524   -0.6105    0.0000 H         1 <0>        0.00000
     37 H16        -1.1524   -0.6105    0.0000 H         1 <0>        0.00000
@<TRIPOS>BOND
     1    1    2 3
     2    1   11 1
     3    2    3 1
     4    3    4 1
     5    3    5 1
     6    4    5 1
     7    6    7 am
     8    6   12 1
     9    7    8 2
    10    7    9 1
    11    9   10 2
    12    9   19 1
    13   10   11 1
    14   10   13 1
    15   12   13 ar
    16   12   17 ar
    17   13   14 ar
    18   14   15 ar
    19   15   16 ar
    20   15   18 1
    21   16   17 ar
    22   19   20 1
    23   19   21 1
    24    3   22 1
    25    4   23 1
    26    4   24 1
    27    5   25 1
    28    5   26 1
    29    6   27 1
    30   14   28 1
    31   16   29 1
    32   17   30 1
    33   19   31 1
    34   20   32 1
    35   20   33 1
    36   20   34 1
    37   21   35 1
    38   21   36 1
    39   21   37 1
@<TRIPOS>SUBSTRUCTURE
     1 <0>         1 GROUP 0 A     ****
@<TRIPOS>MOLECULE
*****
   40    41     1     0     0
SMALL
NO_CHARGES

@<TRIPOS>ATOM
      1 N1         -2.8961   -2.2230    0.0000 N.am      1 <0>        0.00000
      2 C1         -2.3441   -2.8361    0.0000 C.2       1 <0>        0.00000
      3 O1         -2.5990   -3.6207    0.0000 O.2       1 <0>        0.00000
      4 C2         -1.5371   -2.6646    0.0000 C.2       1 <0>        0.00000
      5 C3         -0.9851   -3.2777    0.0000 C.2       1 <0>        0.00000
      6 C4         -0.1781   -3.1062    0.0000 C.2       1 <0>        0.00000
      7 C5          0.3739   -3.7192    0.0000 C.3       1 <0>        0.00000
      8 S1          1.1809   -3.5477    0.0000 S.o2      1 <0>        0.00000
      9 O2          1.4358   -2.7631    0.0000 O.2       1 <0>        0.00000
     10 O3          1.7329   -4.1608    0.0000 O.2       1 <0>        0.00000
     11 C6          0.0768   -2.3215    0.0000 C.2       1 <0>        0.00000
     12 N2          0.8838   -2.1500    0.0000 N.pl3     1 <0>        0.00000
     13 C7          1.1387   -1.3654    0.0000 C.ar      1 <0>        0.00000
     14 C8          0.6538   -0.6979    0.0000 C.ar      1 <0>        0.00000
     15 C9         -0.1712   -0.6979    0.0000 C.2       1 <0>        0.00000
     16 O4         -0.5837    0.0165    0.0000 O.2       1 <0>        0.00000
     17 C10         1.1387   -0.0305    0.0000 C.ar      1 <0>        0.00000
     18 C11         1.9233   -0.2854    0.0000 C.ar      1 <0>        0.00000
     19 C12         2.6378    0.1271    0.0000 C.ar      1 <0>        0.00000
     20 C13         3.3523   -0.2854    0.0000 C.ar      1 <0>        0.00000
     21 C14         3.3523   -1.1104    0.0000 C.ar      1 <0>        0.00000
     22 C15         2.6378   -1.5229    0.0000 C.ar      1 <0>        0.00000
     23 N3          1.9233   -1.1104    0.0000 N.pl3     1 <0>        0.00000
     24 C16        -0.4752   -1.7084    0.0000 C.2       1 <0>        0.00000
     25 O5         -0.4752   -0.8834    0.0000 O.3       1 <0>        0.00000
     26 O6         -1.2822   -1.8800    0.0000 O.2       1 <0>        0.00000
     27 H1         -2.8961   -2.2230    0.0000 H         1 <0>        0.00000
     28 H2         -2.8961   -2.2230    0.0000 H         1 <0>        0.00000
     29 H3         -1.5371   -2.6646    0.0000 H         1 <0>        0.00000
     30 H4         -0.9851   -3.2777    0.0000 H         1 <0>        0.00000
     31 H5          0.3739   -3.7192    0.0000 H         1 <0>        0.00000
     32 H6          0.3739   -3.7192    0.0000 H         1 <0>        0.00000
     33 H7          0.8838   -2.1500    0.0000 H         1 <0>        0.00000
     34 H8         -0.1712   -0.6979    0.0000 H         1 <0>        0.00000
     35 H9          1.1387   -0.0305    0.0000 H         1 <0>        0.00000
     36 H10         2.6378    0.1271    0.0000 H         1 <0>        0.00000
     37 H11         3.3523   -0.2854    0.0000 H         1 <0>        0.00000
     38 H12         3.3523   -1.1104    0.0000 H         1 <0>        0.00000
     39 H13         2.6378   -1.5229    0.0000 H         1 <0>        0.00000
     40 H14        -0.4752   -0.8834    0.0000 H         1 <0>        0.00000
@<TRIPOS>BOND
     1    1    2 am
     2    2    3 2
     3    2    4 1
     4    4    5 2
     5    5    6 1
     6    6    7 1
     7    7    8 1
     8    8    9 2
     9    8   10 2
    10    6   11 2
    11   11   12 1
    12   12   13 1
    13   13   14 2
    14   14   15 1
    15   15   16 2
    16   14   17 1
    17   17   18 2
    18   18   19 1
    19   19   20 2
    20   20   21 1
    21   21   22 2
    22   22   23 1
    23   13   23 1
    24   18   23 1
    25   11   24 1
    26   24   25 1
    27   24   26 2
    28    1   27 1
    29    1   28 1
    30    4   29 1
    31    5   30 1
    32    7   31 1
    33    7   32 1
    34   12   33 1
    35   15   34 1
    36   17   35 1
    37   19   36 1
    38   20   37 1
    39   21   38 1
    40   22   39 1
    41   25   40 1
@<TRIPOS>SUBSTRUCTURE
     1 <0>         1 GROUP 0 A     ****
@<TRIPOS>MOLECULE
*****
   11    10     1     0     0
SMALL
NO_CHARGES

@<TRIPOS>ATOM
      1 C1          2.0625   -0.7145    0.0000 C.3       1 <0>        0.00000
      2 C2          1.2375   -0.7145    0.0000 C.3       1 <0>        0.00000
      3 Cl1         0.8250   -1.4289    0.0000 Cl        1 <0>        0.00000
      4 C3          0.8250    0.0000    0.0000 C.3       1 <0>        0.00000
      5 Cl2         0.0000    0.0000    0.0000 Cl        1 <0>        0.00000
      6 H1          2.0625   -0.7145    0.0000 H         1 <0>        0.00000
      7 H2          2.0625   -0.7145    0.0000 H         1 <0>        0.00000
      8 H3          2.0625   -0.7145    0.0000 H         1 <0>        0.00000
      9 H4          1.2375   -0.7145    0.0000 H         1 <0>        0.00000
     10 H5          0.8250    0.0000    0.0000 H         1 <0>        0.00000
     11 H6          0.8250    0.0000    0.0000 H         1 <0>        0.00000
@<TRIPOS>BOND
     1    1    2 1
     2    2    3 1
     3    2    4 1
     4    4    5 1
     5    1    6 1
     6    1    7 1
     7    1    8 1
     8    2    9 1
     9    4   10 1
    10    4   11 1
@<TRIPOS>SUBSTRUCTURE
     1 <0>         1 GROUP 0 A     ****
@<TRIPOS>MOLECULE
*****
   72    74     1     0     0
SMALL
NO_CHARGES

@<TRIPOS>ATOM
      1 N1          4.4449    5.8498    0.0000 N.2       1 <0>        0.00000
      2 C1          5.2699    5.8498    0.0000 C.2       1 <0>        0.00000
      3 N2          5.6824    6.5643    0.0000 N.pl3     1 <0>        0.00000
      4 C2          5.6824    5.1354    0.0000 C.ar      1 <0>        0.00000
      5 C3          6.5074    5.1354    0.0000 C.ar      1 <0>        0.00000
      6 C4          6.9199    4.4209    0.0000 C.ar      1 <0>        0.00000
      7 C5          6.5074    3.7064    0.0000 C.ar      1 <0>        0.00000
      8 C6          6.9199    2.9920    0.0000 C.3       1 <0>        0.00000
      9 N3          6.5074    2.2775    0.0000 N.am      1 <0>        0.00000
     10 C7          6.9199    1.5630    0.0000 C.2       1 <0>        0.00000
     11 O1          7.7449    1.5630    0.0000 O.2       1 <0>        0.00000
     12 C8          6.5074    0.8485    0.0000 C.3       1 <0>        0.00000
     13 C9          5.6824    0.8485    0.0000 C.3       1 <0>        0.00000
     14 C10         5.2699    0.1341    0.0000 C.3       1 <0>        0.00000
     15 C11         4.4449    0.1341    0.0000 C.2       1 <0>        0.00000
     16 N4          4.0324   -0.5804    0.0000 N.am      1 <0>        0.00000
     17 O2          4.0324    0.8485    0.0000 O.2       1 <0>        0.00000
     18 N5          6.9199    0.1341    0.0000 N.am      1 <0>        0.00000
     19 C12         6.5074   -0.5804    0.0000 C.2       1 <0>        0.00000
     20 O3          5.6824   -0.5804    0.0000 O.2       1 <0>        0.00000
     21 C13         6.9199   -1.2949    0.0000 C.3       1 <0>        0.00000
     22 C14         6.5074   -2.0093    0.0000 C.3       1 <0>        0.00000
     23 C15         6.9199   -2.7238    0.0000 C.ar      1 <0>        0.00000
     24 C16         7.7404   -2.8100    0.0000 C.ar      1 <0>        0.00000
     25 N6          7.9119   -3.6170    0.0000 N.pl3     1 <0>        0.00000
     26 C17         7.1975   -4.0295    0.0000 C.ar      1 <0>        0.00000
     27 C18         7.0259   -4.8365    0.0000 C.ar      1 <0>        0.00000
     28 C19         6.2413   -5.0914    0.0000 C.ar      1 <0>        0.00000
     29 C20         5.6282   -4.5394    0.0000 C.ar      1 <0>        0.00000
     30 C21         5.7997   -3.7324    0.0000 C.ar      1 <0>        0.00000
     31 C22         6.5844   -3.4775    0.0000 C.ar      1 <0>        0.00000
     32 N7          7.7449   -1.2949    0.0000 N.pl3     1 <0>        0.00000
     33 S1          8.1574   -0.5804    0.0000 S.o2      1 <0>        0.00000
     34 O4          7.4430   -0.1679    0.0000 O.2       1 <0>        0.00000
     35 O5          8.8719   -0.9929    0.0000 O.2       1 <0>        0.00000
     36 C23         8.5699    0.1341    0.0000 C.3       1 <0>        0.00000
     37 C24         9.3949    0.1341    0.0000 C.3       1 <0>        0.00000
     38 C25         5.6824    3.7064    0.0000 C.ar      1 <0>        0.00000
     39 C26         5.2699    4.4209    0.0000 C.ar      1 <0>        0.00000
     40 H1          4.4449    5.8498    0.0000 H         1 <0>        0.00000
     41 H2          5.6824    6.5643    0.0000 H         1 <0>        0.00000
     42 H3          5.6824    6.5643    0.0000 H         1 <0>        0.00000
     43 H4          6.5074    5.1354    0.0000 H         1 <0>        0.00000
     44 H5          6.9199    4.4209    0.0000 H         1 <0>        0.00000
     45 H6          6.9199    2.9920    0.0000 H         1 <0>        0.00000
     46 H7          6.9199    2.9920    0.0000 H         1 <0>        0.00000
     47 H8          6.5074    2.2775    0.0000 H         1 <0>        0.00000
     48 H9          6.5074    0.8485    0.0000 H         1 <0>        0.00000
     49 H10         5.6824    0.8485    0.0000 H         1 <0>        0.00000
     50 H11         5.6824    0.8485    0.0000 H         1 <0>        0.00000
     51 H12         5.2699    0.1341    0.0000 H         1 <0>        0.00000
     52 H13         5.2699    0.1341    0.0000 H         1 <0>        0.00000
     53 H14         4.0324   -0.5804    0.0000 H         1 <0>        0.00000
     54 H15         4.0324   -0.5804    0.0000 H         1 <0>        0.00000
     55 H16         6.9199    0.1341    0.0000 H         1 <0>        0.00000
     56 H17         6.9199   -1.2949    0.0000 H         1 <0>        0.00000
     57 H18         6.5074   -2.0093    0.0000 H         1 <0>        0.00000
     58 H19         6.5074   -2.0093    0.0000 H         1 <0>        0.00000
     59 H20         7.7404   -2.8100    0.0000 H         1 <0>        0.00000
     60 H21         7.9119   -3.6170    0.0000 H         1 <0>        0.00000
     61 H22         7.0259   -4.8365    0.0000 H         1 <0>        0.00000
     62 H23         6.2413   -5.0914    0.0000 H         1 <0>        0.00000
     63 H24         5.6282   -4.5394    0.0000 H         1 <0>        0.00000
     64 H25         5.7997   -3.7324    0.0000 H         1 <0>        0.00000
     65 H26         7.7449   -1.2949    0.0000 H         1 <0>        0.00000
     66 H27         8.5699    0.1341    0.0000 H         1 <0>        0.00000
     67 H28         8.5699    0.1341    0.0000 H         1 <0>        0.00000
     68 H29         9.3949    0.1341    0.0000 H         1 <0>        0.00000
     69 H30         9.3949    0.1341    0.0000 H         1 <0>        0.00000
     70 H31         9.3949    0.1341    0.0000 H         1 <0>        0.00000
     71 H32         5.6824    3.7064    0.0000 H         1 <0>        0.00000
     72 H33         5.2699    4.4209    0.0000 H         1 <0>        0.00000
@<TRIPOS>BOND
     1    1    2 2
     2    2    3 1
     3    2    4 1
     4    4    5 ar
     5    5    6 ar
     6    6    7 ar
     7    7    8 1
     8    8    9 1
     9    9   10 am
    10   10   11 2
    11   10   12 1
    12   12   13 1
    13   13   14 1
    14   14   15 1
    15   15   16 am
    16   15   17 2
    17   12   18 1
    18   18   19 am
    19   19   20 2
    20   19   21 1
    21   21   22 1
    22   22   23 1
    23   23   24 2
    24   24   25 1
    25   25   26 1
    26   26   27 ar
    27   27   28 ar
    28   28   29 ar
    29   29   30 ar
    30   30   31 ar
    31   23   31 1
    32   26   31 ar
    33   21   32 1
    34   32   33 1
    35   33   34 2
    36   33   35 2
    37   33   36 1
    38   36   37 1
    39    7   38 ar
    40   38   39 ar
    41    4   39 ar
    42    1   40 1
    43    3   41 1
    44    3   42 1
    45    5   43 1
    46    6   44 1
    47    8   45 1
    48    8   46 1
    49    9   47 1
    50   12   48 1
    51   13   49 1
    52   13   50 1
    53   14   51 1
    54   14   52 1
    55   16   53 1
    56   16   54 1
    57   18   55 1
    58   21   56 1
    59   22   57 1
    60   22   58 1
    61   24   59 1
    62   25   60 1
    63   27   61 1
    64   28   62 1
    65   29   63 1
    66   30   64 1
    67   32   65 1
    68   36   66 1
    69   36   67 1
    70   37   68 1
    71   37   69 1
    72   37   70 1
    73   38   71 1
    74   39   72 1
@<TRIPOS>SUBSTRUCTURE
     1 <0>         1 GROUP 0 A     ****
@<TRIPOS>MOLECULE
*****
   14    14     1     0     0
SMALL
NO_CHARGES

@<TRIPOS>ATOM
      1 I1          2.1434    1.2375    0.0000 I         1 <0>        0.00000
      2 C1          1.4289    0.8250    0.0000 C.3       1 <0>        0.00000
      3 C2          1.4289    0.0000    0.0000 C.3       1 <0>        0.00000
      4 N1          0.7145   -0.4125    0.0000 N.am      1 <0>        0.00000
      5 C3          0.0000    0.0000    0.0000 C.2       1 <0>        0.00000
      6 O1         -0.7145   -0.4125    0.0000 O.2       1 <0>        0.00000
      7 N2          0.0000    0.8250    0.0000 N.am      1 <0>        0.00000
      8 C4          0.7145    1.2375    0.0000 C.2       1 <0>        0.00000
      9 O2          0.7145    2.0625    0.0000 O.2       1 <0>        0.00000
     10 H1          1.4289    0.8250    0.0000 H         1 <0>        0.00000
     11 H2          1.4289    0.0000    0.0000 H         1 <0>        0.00000
     12 H3          1.4289    0.0000    0.0000 H         1 <0>        0.00000
     13 H4          0.7145   -0.4125    0.0000 H         1 <0>        0.00000
     14 H5          0.0000    0.8250    0.0000 H         1 <0>        0.00000
@<TRIPOS>BOND
     1    1    2 1
     2    2    3 1
     3    3    4 1
     4    4    5 am
     5    5    6 2
     6    5    7 am
     7    7    8 am
     8    2    8 1
     9    8    9 2
    10    2   10 1
    11    3   11 1
    12    3   12 1
    13    4   13 1
    14    7   14 1
@<TRIPOS>SUBSTRUCTURE
     1 <0>         1 GROUP 0 A     ****
@<TRIPOS>MOLECULE
AT5
   44    44     1     0     0
SMALL
NO_CHARGES

@<TRIPOS>ATOM
      1 O1          0.0373   -1.5539    0.0000 O.2       1 <0>        0.00000
      2 C1          0.0373   -0.7289    0.0000 C.2       1 <0>        0.00000
      3 C2          0.7518   -0.3164    0.0000 C.3       1 <0>        0.00000
      4 C3          1.4663   -0.7289    0.0000 C.3       1 <0>        0.00000
      5 C4          2.1808   -0.3164    0.0000 C.3       1 <0>        0.00000
      6 C5          2.1808    0.5086    0.0000 C.3       1 <0>        0.00000
      7 C6          2.8952   -0.7289    0.0000 C.3       1 <0>        0.00000
      8 Cl1         2.8952   -1.5539    0.0000 Cl        1 <0>        0.00000
      9 C7          3.6097   -0.3164    0.0000 C.3       1 <0>        0.00000
     10 Cl2         4.3242   -0.7289    0.0000 Cl        1 <0>        0.00000
     11 C8          0.7518    0.5086    0.0000 C.3       1 <0>        0.00000
     12 C9         -0.6771   -0.3164    0.0000 C.ar      1 <0>        0.00000
     13 C10        -1.3916   -0.7289    0.0000 C.ar      1 <0>        0.00000
     14 N1         -2.1061   -0.3164    0.0000 N.am      1 <0>        0.00000
     15 C11        -2.1061    0.5086    0.0000 C.ar      1 <0>        0.00000
     16 C12        -1.3916    0.9211    0.0000 C.ar      1 <0>        0.00000
     17 C13        -0.6771    0.5086    0.0000 C.ar      1 <0>        0.00000
     18 O2          0.0373    0.9211    0.0000 O.3       1 <0>        0.00000
     19 O3         -1.3916    1.7461    0.0000 O.3       1 <0>        0.00000
     20 C14        -0.6771    2.1586    0.0000 C.3       1 <0>        0.00000
     21 O4         -2.8205    0.9211    0.0000 O.3       1 <0>        0.00000
     22 C15        -3.5350    0.5086    0.0000 C.3       1 <0>        0.00000
     23 O5         -1.3916   -1.5539    0.0000 O.2       1 <0>        0.00000
     24 H1          0.7518   -0.9003    0.0000 H         1 <0>        0.00000
     25 H2          1.6751   -0.0244    0.0000 H         1 <0>        0.00000
     26 H3          2.3895   -1.0208    0.0000 H         1 <0>        0.00000
     27 H4          1.4663   -0.7289    0.0000 H         1 <0>        0.00000
     28 H5          1.4663   -0.7289    0.0000 H         1 <0>        0.00000
     29 H6          2.1808    0.5086    0.0000 H         1 <0>        0.00000
     30 H7          2.1808    0.5086    0.0000 H         1 <0>        0.00000
     31 H8          2.1808    0.5086    0.0000 H         1 <0>        0.00000
     32 H9          3.6097   -0.3164    0.0000 H         1 <0>        0.00000
     33 H10         3.6097   -0.3164    0.0000 H         1 <0>        0.00000
     34 H11         0.7518    0.5086    0.0000 H         1 <0>        0.00000
     35 H12         0.7518    0.5086    0.0000 H         1 <0>        0.00000
     36 H13         0.7518    0.5086    0.0000 H         1 <0>        0.00000
     37 H14        -2.1061   -0.3164    0.0000 H         1 <0>        0.00000
     38 H15         0.0373    0.9211    0.0000 H         1 <0>        0.00000
     39 H16        -0.6771    2.1586    0.0000 H         1 <0>        0.00000
     40 H17        -0.6771    2.1586    0.0000 H         1 <0>        0.00000
     41 H18        -0.6771    2.1586    0.0000 H         1 <0>        0.00000
     42 H19        -3.5350    0.5086    0.0000 H         1 <0>        0.00000
     43 H20        -3.5350    0.5086    0.0000 H         1 <0>        0.00000
     44 H21        -3.5350    0.5086    0.0000 H         1 <0>        0.00000
@<TRIPOS>BOND
     1    1    2 2
     2    2    3 1
     3    2   12 1
     4    3    4 1
     5    3   11 1
     6    3   24 1
     7    4    5 1
     8    5    6 1
     9    5    7 1
    10    5   25 1
    11    7    8 1
    12    7    9 1
    13    7   26 1
    14    9   10 1
    15   12   13 1
    16   12   17 2
    17   13   14 am
    18   13   23 2
    19   14   15 1
    20   15   16 2
    21   15   21 1
    22   16   17 1
    23   16   19 1
    24   17   18 1
    25   19   20 1
    26   21   22 1
    27    4   27 1
    28    4   28 1
    29    6   29 1
    30    6   30 1
    31    6   31 1
    32    9   32 1
    33    9   33 1
    34   11   34 1
    35   11   35 1
    36   11   36 1
    37   14   37 1
    38   18   38 1
    39   20   39 1
    40   20   40 1
    41   20   41 1
    42   22   42 1
    43   22   43 1
    44   22   44 1
@<TRIPOS>SUBSTRUCTURE
     1 <0>         1 GROUP 0 A     ****
@<TRIPOS>MOLECULE
*****
   21    20     1     0     0
SMALL
NO_CHARGES

@<TRIPOS>ATOM
      1 O1          1.0461    1.4289    0.0000 O.3       1 <0>        0.00000
      2 C1          1.7605    1.8414    0.0000 C.3       1 <0>        0.00000
      3 C2          2.4750    1.4289    0.0000 C.3       1 <0>        0.00000
      4 C3          3.1895    1.8414    0.0000 C.3       1 <0>        0.00000
      5 C4          3.9039    1.4289    0.0000 C.3       1 <0>        0.00000
      6 C5          4.6184    1.8414    0.0000 C.3       1 <0>        0.00000
      7 C6          5.3329    1.4289    0.0000 C.3       1 <0>        0.00000
      8 Br1         6.0474    1.8414    0.0000 Br        1 <0>        0.00000
      9 H1          1.0461    1.4289    0.0000 H         1 <0>        0.00000
     10 H2          1.7605    1.8414    0.0000 H         1 <0>        0.00000
     11 H3          1.7605    1.8414    0.0000 H         1 <0>        0.00000
     12 H4          2.4750    1.4289    0.0000 H         1 <0>        0.00000
     13 H5          2.4750    1.4289    0.0000 H         1 <0>        0.00000
     14 H6          3.1895    1.8414    0.0000 H         1 <0>        0.00000
     15 H7          3.1895    1.8414    0.0000 H         1 <0>        0.00000
     16 H8          3.9039    1.4289    0.0000 H         1 <0>        0.00000
     17 H9          3.9039    1.4289    0.0000 H         1 <0>        0.00000
     18 H10         4.6184    1.8414    0.0000 H         1 <0>        0.00000
     19 H11         4.6184    1.8414    0.0000 H         1 <0>        0.00000
     20 H12         5.3329    1.4289    0.0000 H         1 <0>        0.00000
     21 H13         5.3329    1.4289    0.0000 H         1 <0>        0.00000
@<TRIPOS>BOND
     1    1    2 1
     2    2    3 1
     3    3    4 1
     4    4    5 1
     5    5    6 1
     6    6    7 1
     7    7    8 1
     8    1    9 1
     9    2   10 1
    10    2   11 1
    11    3   12 1
    12    3   13 1
    13    4   14 1
    14    4   15 1
    15    5   16 1
    16    5   17 1
    17    6   18 1
    18    6   19 1
    19    7   20 1
    20    7   21 1
@<TRIPOS>SUBSTRUCTURE
     1 <0>         1 GROUP 0 A     ****
@<TRIPOS>MOLECULE
*****
   19    18     1     0     0
SMALL
NO_CHARGES

@<TRIPOS>ATOM
      1 S1         -1.6204    0.7145    0.0000 S.3       1 <0>        0.00000
      2 C1         -0.9059    1.1270    0.0000 C.2       1 <0>        0.00000
      3 C2         -0.1914    0.7145    0.0000 C.2       1 <0>        0.00000
      4 C3          0.5230    1.1270    0.0000 C.3       1 <0>        0.00000
      5 S2          1.2375    0.7145    0.0000 S.o       1 <0>        0.00000
      6 O1          1.2375   -0.1105    0.0000 O.2       1 <0>        0.00000
      7 C4          1.9520    1.1270    0.0000 C.3       1 <0>        0.00000
      8 C5          2.6664    0.7145    0.0000 C.2       1 <0>        0.00000
      9 C6          3.3809    1.1270    0.0000 C.2       1 <0>        0.00000
     10 H1         -1.6204    0.7145    0.0000 H         1 <0>        0.00000
     11 H2         -0.9059    1.1270    0.0000 H         1 <0>        0.00000
     12 H3         -0.1914    0.7145    0.0000 H         1 <0>        0.00000
     13 H4          0.5230    1.1270    0.0000 H         1 <0>        0.00000
     14 H5          0.5230    1.1270    0.0000 H         1 <0>        0.00000
     15 H6          1.9520    1.1270    0.0000 H         1 <0>        0.00000
     16 H7          1.9520    1.1270    0.0000 H         1 <0>        0.00000
     17 H8          2.6664    0.7145    0.0000 H         1 <0>        0.00000
     18 H9          3.3809    1.1270    0.0000 H         1 <0>        0.00000
     19 H10         3.3809    1.1270    0.0000 H         1 <0>        0.00000
@<TRIPOS>BOND
     1    1    2 1
     2    2    3 2
     3    3    4 1
     4    4    5 1
     5    5    6 2
     6    5    7 1
     7    7    8 1
     8    8    9 2
     9    1   10 1
    10    2   11 1
    11    3   12 1
    12    4   13 1
    13    4   14 1
    14    7   15 1
    15    7   16 1
    16    8   17 1
    17    9   18 1
    18    9   19 1
@<TRIPOS>SUBSTRUCTURE
     1 <0>         1 GROUP 0 A     ****
@<TRIPOS>MOLECULE
*****
   31    32     1     0     0
SMALL
NO_CHARGES

@<TRIPOS>ATOM
      1 N1          4.5621    1.8437    0.0000 N.3       1 <0>        0.00000
      2 C1          3.7738    2.0868    0.0000 C.3       1 <0>        0.00000
      3 C2          3.1690    1.5257    0.0000 C.3       1 <0>        0.00000
      4 C3          3.3526    0.7214    0.0000 C.2       1 <0>        0.00000
      5 C4          4.1569    0.5378    0.0000 C.2       1 <0>        0.00000
      6 C5          4.5149   -0.2055    0.0000 C.3       1 <0>        0.00000
      7 C6          4.1569   -0.9488    0.0000 C.3       1 <0>        0.00000
      8 C7          3.3526   -1.1324    0.0000 C.3       1 <0>        0.00000
      9 C8          2.7076   -0.6180    0.0000 C.ar      1 <0>        0.00000
     10 C9          2.7076    0.2070    0.0000 C.ar      1 <0>        0.00000
     11 C10         1.9230    0.4619    0.0000 C.ar      1 <0>        0.00000
     12 O1          1.6680    1.2466    0.0000 O.2       1 <0>        0.00000
     13 N2          1.4380   -0.2055    0.0000 N.am      1 <0>        0.00000
     14 O2          1.9230   -0.8729    0.0000 O.3       1 <0>        0.00000
     15 C11         3.5902    2.8912    0.0000 C.2       1 <0>        0.00000
     16 O3          2.8019    3.1343    0.0000 O.3       1 <0>        0.00000
     17 O4          4.1950    3.4523    0.0000 O.2       1 <0>        0.00000
     18 H1          4.5621    1.8437    0.0000 H         1 <0>        0.00000
     19 H2          4.5621    1.8437    0.0000 H         1 <0>        0.00000
     20 H3          3.7738    2.0868    0.0000 H         1 <0>        0.00000
     21 H4          3.1690    1.5257    0.0000 H         1 <0>        0.00000
     22 H5          3.1690    1.5257    0.0000 H         1 <0>        0.00000
     23 H6          4.1569    0.5378    0.0000 H         1 <0>        0.00000
     24 H7          4.5149   -0.2055    0.0000 H         1 <0>        0.00000
     25 H8          4.5149   -0.2055    0.0000 H         1 <0>        0.00000
     26 H9          4.1569   -0.9488    0.0000 H         1 <0>        0.00000
     27 H10         4.1569   -0.9488    0.0000 H         1 <0>        0.00000
     28 H11         3.3526   -1.1324    0.0000 H         1 <0>        0.00000
     29 H12         3.3526   -1.1324    0.0000 H         1 <0>        0.00000
     30 H13         1.4380   -0.2055    0.0000 H         1 <0>        0.00000
     31 H14         2.8019    3.1343    0.0000 H         1 <0>        0.00000
@<TRIPOS>BOND
     1    1    2 1
     2    2    3 1
     3    3    4 1
     4    4    5 2
     5    5    6 1
     6    6    7 1
     7    7    8 1
     8    8    9 1
     9    9   10 2
    10    4   10 1
    11   10   11 1
    12   11   12 2
    13   11   13 am
    14   13   14 1
    15    9   14 1
    16    2   15 1
    17   15   16 1
    18   15   17 2
    19    1   18 1
    20    1   19 1
    21    2   20 1
    22    3   21 1
    23    3   22 1
    24    5   23 1
    25    6   24 1
    26    6   25 1
    27    7   26 1
    28    7   27 1
    29    8   28 1
    30    8   29 1
    31   13   30 1
    32   16   31 1
@<TRIPOS>SUBSTRUCTURE
     1 <0>         1 GROUP 0 A     ****
@<TRIPOS>MOLECULE
*****
   22    22     1     0     0
SMALL
NO_CHARGES

@<TRIPOS>ATOM
      1 O1          2.1434    2.0625    0.0000 O.3       1 <0>        0.00000
      2 C1          2.1434    1.2375    0.0000 C.3       1 <0>        0.00000
      3 C2          1.4289    0.8250    0.0000 C.3       1 <0>        0.00000
      4 O2          1.4289    0.0000    0.0000 O.3       1 <0>        0.00000
      5 C3          0.7145   -0.4125    0.0000 C.3       1 <0>        0.00000
      6 F1          0.7145   -1.2375    0.0000 F         1 <0>        0.00000
      7 C4          0.0000    0.0000    0.0000 C.3       1 <0>        0.00000
      8 F2         -0.7145   -0.4125    0.0000 F         1 <0>        0.00000
      9 C5          0.0000    0.8250    0.0000 C.3       1 <0>        0.00000
     10 O3         -0.7145    1.2375    0.0000 O.3       1 <0>        0.00000
     11 C6          0.7145    1.2375    0.0000 C.3       1 <0>        0.00000
     12 O4          0.7145    2.0625    0.0000 O.3       1 <0>        0.00000
     13 H1          2.1434    2.0625    0.0000 H         1 <0>        0.00000
     14 H2          2.1434    1.2375    0.0000 H         1 <0>        0.00000
     15 H3          2.1434    1.2375    0.0000 H         1 <0>        0.00000
     16 H4          1.4289    0.8250    0.0000 H         1 <0>        0.00000
     17 H5          0.7145   -0.4125    0.0000 H         1 <0>        0.00000
     18 H6          0.0000    0.0000    0.0000 H         1 <0>        0.00000
     19 H7          0.0000    0.8250    0.0000 H         1 <0>        0.00000
     20 H8         -0.7145    1.2375    0.0000 H         1 <0>        0.00000
     21 H9          0.7145    1.2375    0.0000 H         1 <0>        0.00000
     22 H10         0.7145    2.0625    0.0000 H         1 <0>        0.00000
@<TRIPOS>BOND
     1    1    2 1
     2    2    3 1
     3    3    4 1
     4    4    5 1
     5    5    6 1
     6    5    7 1
     7    7    8 1
     8    7    9 1
     9    9   10 1
    10    9   11 1
    11    3   11 1
    12   11   12 1
    13    1   13 1
    14    2   14 1
    15    2   15 1
    16    3   16 1
    17    5   17 1
    18    7   18 1
    19    9   19 1
    20   10   20 1
    21   11   21 1
    22   12   22 1
@<TRIPOS>SUBSTRUCTURE
     1 <0>         1 GROUP 0 A     ****
@<TRIPOS>MOLECULE
*****
   11    10     1     0     0
SMALL
NO_CHARGES

 
@<TRIPOS>ATOM
      1 F1          1.6500    0.0000    0.0000 F         1 <0>        0.00000
      2 C1          0.8250    0.0000    0.0000 C.3       1 <0>        0.00000
      3 C2          0.0000    0.0000    0.0000 C.3       1 <0>        0.00000
      4 C3         -0.8250    0.0000    0.0000 C.3       1 <0>        0.00000
      5 F2         -0.8250    0.8250    0.0000 F         1 <0>        0.00000
      6 F3         -0.8250   -0.8250    0.0000 F         1 <0>        0.00000
      7 F4          0.0000   -0.8250    0.0000 F         1 <0>        0.00000
      8 F5          0.8250   -0.8250    0.0000 F         1 <0>        0.00000
      9 F6          0.8250    0.8250    0.0000 F         1 <0>        0.00000
     10 F7          0.0000    0.8250    0.0000 F         1 <0>        0.00000
     11 F8         -1.6500    0.0000    0.0000 F         1 <0>        0.00000
@<TRIPOS>BOND
     1    4    6 1
     2    1    2 1
     3    3    7 1
     4    3    4 1
     5    2    8 1
     6    2    9 1
     7    4    5 1
     8    3   10 1
     9    2    3 1
    10    4   11 1
@<TRIPOS>SUBSTRUCTURE
     1 <0>         1 GROUP 0 A     ****
@<TRIPOS>MOLECULE
HE1
   29    29     1     0     0
SMALL
NO_CHARGES

@<TRIPOS>ATOM
      1 P1         -1.4143   -0.9748    0.0000 P.3       1 <0>        0.00000
      2 O1         -2.1288   -0.5623    0.0000 O.3       1 <0>        0.00000
      3 O2         -1.8268   -1.6892    0.0000 O.3       1 <0>        0.00000
      4 O3         -1.0018   -0.2603    0.0000 O.2       1 <0>        0.00000
      5 C1         -0.6999   -1.3873    0.0000 C.2       1 <0>        0.00000
      6 C2         -0.6999   -2.2123    0.0000 C.2       1 <0>        0.00000
      7 C3          0.7291   -2.2123    0.0000 C.3       1 <0>        0.00000
      8 C4          0.0146   -2.6248    0.0000 C.3       1 <0>        0.00000
      9 S1          1.4435   -2.6248    0.0000 S.3       1 <0>        0.00000
     10 O4          2.8725   -3.4498    0.0000 O.3       1 <0>        0.00000
     11 C5          3.5869   -1.3873    0.0000 C.ar      1 <0>        0.00000
     12 C6          3.5869   -2.2123    0.0000 C.ar      1 <0>        0.00000
     13 C7          2.8725   -2.6248    0.0000 C.ar      1 <0>        0.00000
     14 C8          2.1580   -2.2123    0.0000 C.ar      1 <0>        0.00000
     15 C9          2.1580   -1.3873    0.0000 C.ar      1 <0>        0.00000
     16 C10         2.8725   -0.9748    0.0000 C.ar      1 <0>        0.00000
     17 H1         -2.1288   -0.5623    0.0000 H         1 <0>        0.00000
     18 H2         -1.8268   -1.6892    0.0000 H         1 <0>        0.00000
     19 H3         -0.6999   -1.3873    0.0000 H         1 <0>        0.00000
     20 H4         -0.6999   -2.2123    0.0000 H         1 <0>        0.00000
     21 H5          0.7291   -2.2123    0.0000 H         1 <0>        0.00000
     22 H6          0.7291   -2.2123    0.0000 H         1 <0>        0.00000
     23 H7          0.0146   -2.6248    0.0000 H         1 <0>        0.00000
     24 H8          0.0146   -2.6248    0.0000 H         1 <0>        0.00000
     25 H9          2.8725   -3.4498    0.0000 H         1 <0>        0.00000
     26 H10         3.5869   -1.3873    0.0000 H         1 <0>        0.00000
     27 H11         3.5869   -2.2123    0.0000 H         1 <0>        0.00000
     28 H12         2.1580   -1.3873    0.0000 H         1 <0>        0.00000
     29 H13         2.8725   -0.9748    0.0000 H         1 <0>        0.00000
@<TRIPOS>BOND
     1    1    2 1
     2    1    3 1
     3    1    4 2
     4    1    5 1
     5    5    6 2
     6    6    8 1
     7    7    8 1
     8    7    9 1
     9    9   14 1
    10   10   13 1
    11   11   12 ar
    12   11   16 ar
    13   12   13 ar
    14   13   14 ar
    15   14   15 ar
    16   15   16 ar
    17    2   17 1
    18    3   18 1
    19    5   19 1
    20    6   20 1
    21    7   21 1
    22    7   22 1
    23    8   23 1
    24    8   24 1
    25   10   25 1
    26   11   26 1
    27   12   27 1
    28   15   28 1
    29   16   29 1
@<TRIPOS>SUBSTRUCTURE
     1 <0>         1 GROUP 0 A     ****
@<TRIPOS>MOLECULE
HF1
   29    29     1     0     0
SMALL
NO_CHARGES

@<TRIPOS>ATOM
      1 P1          2.9508   -0.0571    0.0000 P.3       1 <0>        0.00000
      2 O1          3.6652    0.3554    0.0000 O.2       1 <0>        0.00000
      3 O2          2.5383    0.6574    0.0000 O.3       1 <0>        0.00000
      4 O3          3.3633   -0.7716    0.0000 O.3       1 <0>        0.00000
      5 C1          1.5218   -0.0571    0.0000 C.2       1 <0>        0.00000
      6 C2          0.0929   -0.0571    0.0000 C.3       1 <0>        0.00000
      7 C3         -1.3361    0.7679    0.0000 C.ar      1 <0>        0.00000
      8 C4         -1.3361   -0.0571    0.0000 C.ar      1 <0>        0.00000
      9 C5         -2.0505   -0.4696    0.0000 C.ar      1 <0>        0.00000
     10 O4         -2.0505   -1.2946    0.0000 O.3       1 <0>        0.00000
     11 C6         -2.7650   -0.0571    0.0000 C.ar      1 <0>        0.00000
     12 C7         -2.7650    0.7679    0.0000 C.ar      1 <0>        0.00000
     13 C8         -2.0505    1.1804    0.0000 C.ar      1 <0>        0.00000
     14 F1         -2.0505    2.0054    0.0000 F         1 <0>        0.00000
     15 S1         -0.6216   -0.4696    0.0000 S.3       1 <0>        0.00000
     16 C9          0.8074   -0.4696    0.0000 C.3       1 <0>        0.00000
     17 C10         2.2363   -0.4696    0.0000 C.2       1 <0>        0.00000
     18 H1          2.5383    0.6574    0.0000 H         1 <0>        0.00000
     19 H2          3.3633   -0.7716    0.0000 H         1 <0>        0.00000
     20 H3          1.5218   -0.0571    0.0000 H         1 <0>        0.00000
     21 H4          0.0929   -0.0571    0.0000 H         1 <0>        0.00000
     22 H5          0.0929   -0.0571    0.0000 H         1 <0>        0.00000
     23 H6         -1.3361    0.7679    0.0000 H         1 <0>        0.00000
     24 H7         -2.0505   -1.2946    0.0000 H         1 <0>        0.00000
     25 H8         -2.7650   -0.0571    0.0000 H         1 <0>        0.00000
     26 H9         -2.7650    0.7679    0.0000 H         1 <0>        0.00000
     27 H10         0.8074   -0.4696    0.0000 H         1 <0>        0.00000
     28 H11         0.8074   -0.4696    0.0000 H         1 <0>        0.00000
     29 H12         2.2363   -0.4696    0.0000 H         1 <0>        0.00000
@<TRIPOS>BOND
     1    1    2 2
     2    1    3 1
     3    1    4 1
     4    1   17 1
     5    5   16 1
     6    5   17 2
     7    6   15 1
     8    6   16 1
     9    7    8 ar
    10    7   13 ar
    11    8    9 ar
    12    8   15 1
    13    9   10 1
    14    9   11 ar
    15   11   12 ar
    16   12   13 ar
    17   13   14 1
    18    3   18 1
    19    4   19 1
    20    5   20 1
    21    6   21 1
    22    6   22 1
    23    7   23 1
    24   10   24 1
    25   11   25 1
    26   12   26 1
    27   16   27 1
    28   16   28 1
    29   17   29 1
@<TRIPOS>SUBSTRUCTURE
     1 <0>         1 GROUP 0 A     ****
@<TRIPOS>MOLECULE
562
   40    42     1     0     0
SMALL
NO_CHARGES

@<TRIPOS>ATOM
      1 Cl1         9.5636    1.0625    0.0000 Cl        1 <0>        0.00000
      2 S1          6.6513   -0.6074    0.0000 S.o2      1 <0>        0.00000
      3 S2          9.5636   -0.6273    0.0000 S.o2      1 <0>        0.00000
      4 S3          4.5079    0.6301    0.0000 S.3       1 <0>        0.00000
      5 O1          7.0638   -1.3219    0.0000 O.2       1 <0>        0.00000
      6 O2          6.2388   -1.3219    0.0000 O.2       1 <0>        0.00000
      7 O3          9.9789    0.0856    0.0000 O.2       1 <0>        0.00000
      8 O4          9.1484   -1.3402    0.0000 O.2       1 <0>        0.00000
      9 N1          6.6513    1.0426    0.0000 N.pl3     1 <0>        0.00000
     10 N2          5.9369   -0.1949    0.0000 N.ar      1 <0>        0.00000
     11 N3         10.2765   -1.0426    0.0000 N.pl3     1 <0>        0.00000
     12 C1          7.3658   -0.1949    0.0000 C.ar      1 <0>        0.00000
     13 C2          7.3658    0.6301    0.0000 C.ar      1 <0>        0.00000
     14 C3          8.1032   -0.6360    0.0000 C.ar      1 <0>        0.00000
     15 C4          8.8508   -0.2121    0.0000 C.ar      1 <0>        0.00000
     16 C5          5.9369    0.6301    0.0000 C.ar      1 <0>        0.00000
     17 C6          8.1032    1.0712    0.0000 C.ar      1 <0>        0.00000
     18 C7          8.8508    0.6473    0.0000 C.ar      1 <0>        0.00000
     19 C8          5.2223    1.0426    0.0000 C.3       1 <0>        0.00000
     20 C9          3.7934    1.0426    0.0000 C.3       1 <0>        0.00000
     21 C10         3.0790    0.6301    0.0000 C.ar      1 <0>        0.00000
     22 C11         3.0790   -0.1949    0.0000 C.ar      1 <0>        0.00000
     23 C12         2.3644    1.0426    0.0000 C.ar      1 <0>        0.00000
     24 C13         2.3644   -0.6074    0.0000 C.ar      1 <0>        0.00000
     25 C14         1.6500    0.6301    0.0000 C.ar      1 <0>        0.00000
     26 C15         1.6500   -0.1949    0.0000 C.ar      1 <0>        0.00000
     27 H1          6.6513    1.0426    0.0000 H         1 <0>        0.00000
     28 H2         10.2765   -1.0426    0.0000 H         1 <0>        0.00000
     29 H3         10.2765   -1.0426    0.0000 H         1 <0>        0.00000
     30 H4          8.1032   -0.6360    0.0000 H         1 <0>        0.00000
     31 H5          8.1032    1.0712    0.0000 H         1 <0>        0.00000
     32 H6          5.2223    1.0426    0.0000 H         1 <0>        0.00000
     33 H7          5.2223    1.0426    0.0000 H         1 <0>        0.00000
     34 H8          3.7934    1.0426    0.0000 H         1 <0>        0.00000
     35 H9          3.7934    1.0426    0.0000 H         1 <0>        0.00000
     36 H10         3.0790   -0.1949    0.0000 H         1 <0>        0.00000
     37 H11         2.3644    1.0426    0.0000 H         1 <0>        0.00000
     38 H12         2.3644   -0.6074    0.0000 H         1 <0>        0.00000
     39 H13         1.6500    0.6301    0.0000 H         1 <0>        0.00000
     40 H14         1.6500   -0.1949    0.0000 H         1 <0>        0.00000
@<TRIPOS>BOND
     1    1   18 1
     2    2    5 2
     3    2    6 2
     4    2   10 1
     5    2   12 1
     6    3    7 2
     7    3    8 2
     8    3   11 1
     9    3   15 1
    10    4   19 1
    11    4   20 1
    12    9   13 1
    13    9   16 1
    14   10   16 2
    15   12   13 ar
    16   12   14 ar
    17   13   17 ar
    18   14   15 ar
    19   15   18 ar
    20   16   19 1
    21   17   18 ar
    22   20   21 1
    23   21   22 ar
    24   21   23 ar
    25   22   24 ar
    26   23   25 ar
    27   24   26 ar
    28   25   26 ar
    29    9   27 1
    30   11   28 1
    31   11   29 1
    32   14   30 1
    33   17   31 1
    34   19   32 1
    35   19   33 1
    36   20   34 1
    37   20   35 1
    38   22   36 1
    39   23   37 1
    40   24   38 1
    41   25   39 1
    42   26   40 1
@<TRIPOS>SUBSTRUCTURE
     1 <0>         1 GROUP 0 A     ****
@<TRIPOS>MOLECULE
S06
   46    49     1     0     0
SMALL
NO_CHARGES

@<TRIPOS>ATOM
      1 C1         -1.8382    0.0370    0.0000 C.ar      1 <0>        0.00000
      2 C2         -2.5057   -0.4479    0.0000 C.ar      1 <0>        0.00000
      3 C3         -3.2593   -0.1124    0.0000 C.ar      1 <0>        0.00000
      4 C4         -3.9268   -0.5973    0.0000 C.ar      1 <0>        0.00000
      5 C5         -3.8405   -1.4178    0.0000 C.ar      1 <0>        0.00000
      6 C6         -3.0869   -1.7533    0.0000 C.ar      1 <0>        0.00000
      7 C7         -2.4194   -1.2684    0.0000 C.ar      1 <0>        0.00000
      8 C8         -1.6658   -1.6040    0.0000 C.ar      1 <0>        0.00000
      9 C9         -0.9983   -1.1191    0.0000 C.ar      1 <0>        0.00000
     10 C10        -1.0846   -0.2986    0.0000 C.ar      1 <0>        0.00000
     11 C11        -0.4171    0.1863    0.0000 C.3       1 <0>        0.00000
     12 C12         0.3675   -0.0686    0.0000 C.3       1 <0>        0.00000
     13 N1         -0.4171    1.0113    0.0000 N.3       1 <0>        0.00000
     14 O1          0.3675    1.2663    0.0000 O.3       1 <0>        0.00000
     15 C13         0.8524    0.5988    0.0000 C.3       1 <0>        0.00000
     16 O2          1.2649    1.3133    0.0000 O.3       1 <0>        0.00000
     17 C14         2.0899    1.3133    0.0000 C.3       1 <0>        0.00000
     18 C15         2.5024    2.0278    0.0000 C.3       1 <0>        0.00000
     19 O3          2.0899    2.7423    0.0000 O.3       1 <0>        0.00000
     20 C16         2.5024    0.5988    0.0000 C.3       1 <0>        0.00000
     21 O4          3.3274    0.5988    0.0000 O.3       1 <0>        0.00000
     22 C17         2.0899   -0.1156    0.0000 C.3       1 <0>        0.00000
     23 O5          2.5024   -0.8301    0.0000 O.3       1 <0>        0.00000
     24 C18         1.2649   -0.1156    0.0000 C.3       1 <0>        0.00000
     25 O6          0.8524   -0.8301    0.0000 O.3       1 <0>        0.00000
     26 H1         -0.3258   -0.3904    0.0000 H         1 <0>        0.00000
     27 H2          1.7980    1.8190    0.0000 H         1 <0>        0.00000
     28 H3          2.7944    1.1045    0.0000 H         1 <0>        0.00000
     29 H4          2.6739   -0.1156    0.0000 H         1 <0>        0.00000
     30 H5          1.5569   -0.6213    0.0000 H         1 <0>        0.00000
     31 H6         -1.8382    0.0370    0.0000 H         1 <0>        0.00000
     32 H7         -3.2593   -0.1124    0.0000 H         1 <0>        0.00000
     33 H8         -3.9268   -0.5973    0.0000 H         1 <0>        0.00000
     34 H9         -3.8405   -1.4178    0.0000 H         1 <0>        0.00000
     35 H10        -3.0869   -1.7533    0.0000 H         1 <0>        0.00000
     36 H11        -1.6658   -1.6040    0.0000 H         1 <0>        0.00000
     37 H12        -0.9983   -1.1191    0.0000 H         1 <0>        0.00000
     38 H13         0.3675   -0.0686    0.0000 H         1 <0>        0.00000
     39 H14         0.3675   -0.0686    0.0000 H         1 <0>        0.00000
     40 H15        -0.4171    1.0113    0.0000 H         1 <0>        0.00000
     41 H16         2.5024    2.0278    0.0000 H         1 <0>        0.00000
     42 H17         2.5024    2.0278    0.0000 H         1 <0>        0.00000
     43 H18         2.0899    2.7423    0.0000 H         1 <0>        0.00000
     44 H19         3.3274    0.5988    0.0000 H         1 <0>        0.00000
     45 H20         2.5024   -0.8301    0.0000 H         1 <0>        0.00000
     46 H21         0.8524   -0.8301    0.0000 H         1 <0>        0.00000
@<TRIPOS>BOND
     1    1   10 ar
     2    1    2 ar
     3    2    7 ar
     4    2    3 ar
     5    3    4 ar
     6    4    5 ar
     7    5    6 ar
     8    7    8 ar
     9    6    7 ar
    10    8    9 ar
    11    9   10 ar
    12   10   11 1
    13   11   26 1
    14   11   12 1
    15   11   13 1
    16   13   14 1
    17   15   16 1
    18   14   15 1
    19   12   15 1
    20   17   18 1
    21   16   17 1
    22   17   27 1
    23   18   19 1
    24   17   20 1
    25   20   28 1
    26   20   21 1
    27   20   22 1
    28   22   24 1
    29   22   29 1
    30   22   23 1
    31   15   24 1
    32   24   30 1
    33   24   25 1
    34    1   31 1
    35    3   32 1
    36    4   33 1
    37    5   34 1
    38    6   35 1
    39    8   36 1
    40    9   37 1
    41   12   38 1
    42   12   39 1
    43   13   40 1
    44   18   41 1
    45   18   42 1
    46   19   43 1
    47   21   44 1
    48   23   45 1
    49   25   46 1
@<TRIPOS>SUBSTRUCTURE
     1 <0>         1 GROUP 0 A     ****
@<TRIPOS>MOLECULE
*****
   61    62     1     0     0
SMALL
NO_CHARGES

@<TRIPOS>ATOM
      1 N1         -0.7145    0.4125    0.0000 N.ar      1 <0>        0.00000
      2 C1         -0.7145   -0.4125    0.0000 C.ar      1 <0>        0.00000
      3 C2          0.0000    0.8250    0.0000 C.ar      1 <0>        0.00000
      4 C3          0.7145    0.4125    0.0000 C.ar      1 <0>        0.00000
      5 C4          0.7145   -0.4125    0.0000 C.ar      1 <0>        0.00000
      6 N2          0.0000   -0.8250    0.0000 N.ar      1 <0>        0.00000
      7 N3         -1.4289   -0.8250    0.0000 N.pl3     1 <0>        0.00000
      8 C5          1.4289   -0.8250    0.0000 C.3       1 <0>        0.00000
      9 C6          1.4289   -1.6500    0.0000 C.3       1 <0>        0.00000
     10 C7          2.1434   -0.4125    0.0000 C.3       1 <0>        0.00000
     11 C8          0.0000    1.6500    0.0000 C.ar      1 <0>        0.00000
     12 C9         -0.7145    2.0625    0.0000 C.ar      1 <0>        0.00000
     13 C10        -0.7145    2.8875    0.0000 C.ar      1 <0>        0.00000
     14 C11         0.0000    3.3000    0.0000 C.ar      1 <0>        0.00000
     15 C12         0.7145    2.8875    0.0000 C.ar      1 <0>        0.00000
     16 C13         0.7145    2.0625    0.0000 C.ar      1 <0>        0.00000
     17 F1          0.0000    4.1250    0.0000 F         1 <0>        0.00000
     18 C14         1.4289    0.8250    0.0000 C.2       1 <0>        0.00000
     19 C15         2.1473    0.4193    0.0000 C.2       1 <0>        0.00000
     20 C16         2.8578    0.8385    0.0000 C.3       1 <0>        0.00000
     21 C17         3.5762    0.4328    0.0000 C.3       1 <0>        0.00000
     22 C18         4.2867    0.8521    0.0000 C.3       1 <0>        0.00000
     23 C19         5.0050    0.4464    0.0000 C.3       1 <0>        0.00000
     24 C20         5.7156    0.8656    0.0000 C.2       1 <0>        0.00000
     25 O1          5.7078    1.6906    0.0000 O.2       1 <0>        0.00000
     26 O2          6.4339    0.4599    0.0000 O.3       1 <0>        0.00000
     27 O3          4.2789    1.6770    0.0000 O.3       1 <0>        0.00000
     28 O4          2.8500    1.6635    0.0000 O.3       1 <0>        0.00000
     29 C21        -1.4289   -2.4750    0.0000 C.3       1 <0>        0.00000
     30 O5         -0.6039   -1.6500    0.0000 O.2       1 <0>        0.00000
     31 S1         -1.4289   -1.6500    0.0000 S.o2      1 <0>        0.00000
     32 O6         -2.2539   -1.6500    0.0000 O.2       1 <0>        0.00000
     33 C22        -2.1434   -0.4125    0.0000 C.3       1 <0>        0.00000
     34 H1          1.4289   -0.8250    0.0000 H         1 <0>        0.00000
     35 H2          1.4289   -1.6500    0.0000 H         1 <0>        0.00000
     36 H3          1.4289   -1.6500    0.0000 H         1 <0>        0.00000
     37 H4          1.4289   -1.6500    0.0000 H         1 <0>        0.00000
     38 H5          2.1434   -0.4125    0.0000 H         1 <0>        0.00000
     39 H6          2.1434   -0.4125    0.0000 H         1 <0>        0.00000
     40 H7          2.1434   -0.4125    0.0000 H         1 <0>        0.00000
     41 H8         -0.7145    2.0625    0.0000 H         1 <0>        0.00000
     42 H9         -0.7145    2.8875    0.0000 H         1 <0>        0.00000
     43 H10         0.7145    2.8875    0.0000 H         1 <0>        0.00000
     44 H11         0.7145    2.0625    0.0000 H         1 <0>        0.00000
     45 H12         1.4289    0.8250    0.0000 H         1 <0>        0.00000
     46 H13         2.1473    0.4193    0.0000 H         1 <0>        0.00000
     47 H14         2.8578    0.8385    0.0000 H         1 <0>        0.00000
     48 H15         3.5762    0.4328    0.0000 H         1 <0>        0.00000
     49 H16         3.5762    0.4328    0.0000 H         1 <0>        0.00000
     50 H17         4.2867    0.8521    0.0000 H         1 <0>        0.00000
     51 H18         5.0050    0.4464    0.0000 H         1 <0>        0.00000
     52 H19         5.0050    0.4464    0.0000 H         1 <0>        0.00000
     53 H20         6.4339    0.4599    0.0000 H         1 <0>        0.00000
     54 H21         4.2789    1.6770    0.0000 H         1 <0>        0.00000
     55 H22         2.8500    1.6635    0.0000 H         1 <0>        0.00000
     56 H23        -1.4289   -2.4750    0.0000 H         1 <0>        0.00000
     57 H24        -1.4289   -2.4750    0.0000 H         1 <0>        0.00000
     58 H25        -1.4289   -2.4750    0.0000 H         1 <0>        0.00000
     59 H26        -2.1434   -0.4125    0.0000 H         1 <0>        0.00000
     60 H27        -2.1434   -0.4125    0.0000 H         1 <0>        0.00000
     61 H28        -2.1434   -0.4125    0.0000 H         1 <0>        0.00000
@<TRIPOS>BOND
     1    1    2 ar
     2    2    7 1
     3    1    3 ar
     4    3   11 1
     5    3    4 ar
     6    4   18 1
     7    4    5 ar
     8    5    8 1
     9    2    6 ar
    10    5    6 ar
    11    7   31 1
    12    7   33 1
    13    8    9 1
    14    8   10 1
    15   11   12 ar
    16   11   16 ar
    17   12   13 ar
    18   13   14 ar
    19   14   15 ar
    20   14   17 1
    21   15   16 ar
    22   18   19 2
    23   19   20 1
    24   20   21 1
    25   20   28 1
    26   21   22 1
    27   22   23 1
    28   22   27 1
    29   23   24 1
    30   24   25 2
    31   24   26 1
    32   29   31 1
    33   30   31 2
    34   31   32 2
    35    8   34 1
    36    9   35 1
    37    9   36 1
    38    9   37 1
    39   10   38 1
    40   10   39 1
    41   10   40 1
    42   12   41 1
    43   13   42 1
    44   15   43 1
    45   16   44 1
    46   18   45 1
    47   19   46 1
    48   20   47 1
    49   21   48 1
    50   21   49 1
    51   22   50 1
    52   23   51 1
    53   23   52 1
    54   26   53 1
    55   27   54 1
    56   28   55 1
    57   29   56 1
    58   29   57 1
    59   29   58 1
    60   33   59 1
    61   33   60 1
    62   33   61 1
@<TRIPOS>SUBSTRUCTURE
     1 <0>         1 GROUP 0 A     ****
@<TRIPOS>MOLECULE
*****
   58    62     1     0     0
SMALL
NO_CHARGES

@<TRIPOS>ATOM
      1 O1         -3.9716   -2.9008    0.0000 O.3       1 <0>        0.00000
      2 C1         -4.7253   -2.5652    0.0000 C.2       1 <0>        0.00000
      3 O2         -5.3927   -3.0501    0.0000 O.2       1 <0>        0.00000
      4 C2         -4.8115   -1.7447    0.0000 C.3       1 <0>        0.00000
      5 C3         -5.5652   -1.4092    0.0000 C.3       1 <0>        0.00000
      6 C4         -6.2326   -1.8941    0.0000 C.ar      1 <0>        0.00000
      7 C5         -6.1464   -2.7146    0.0000 C.ar      1 <0>        0.00000
      8 C6         -6.8138   -3.1995    0.0000 C.ar      1 <0>        0.00000
      9 C7         -7.5675   -2.8639    0.0000 C.ar      1 <0>        0.00000
     10 C8         -7.6538   -2.0435    0.0000 C.ar      1 <0>        0.00000
     11 C9         -6.9863   -1.5585    0.0000 C.ar      1 <0>        0.00000
     12 N1         -4.1441   -1.2598    0.0000 N.am      1 <0>        0.00000
     13 C10        -3.3904   -1.5954    0.0000 C.3       1 <0>        0.00000
     14 C11        -2.7230   -1.1104    0.0000 C.ar      1 <0>        0.00000
     15 C12        -2.7230   -0.2854    0.0000 C.ar      1 <0>        0.00000
     16 C13        -1.9384   -0.0305    0.0000 C.ar      1 <0>        0.00000
     17 C14        -1.4534   -0.6979    0.0000 C.ar      1 <0>        0.00000
     18 S1         -1.9384   -1.3654    0.0000 S.3       1 <0>        0.00000
     19 C15        -0.6284   -0.6979    0.0000 C.ar      1 <0>        0.00000
     20 C16        -0.1435   -1.3654    0.0000 C.ar      1 <0>        0.00000
     21 C17         0.6411   -1.1104    0.0000 C.ar      1 <0>        0.00000
     22 C18         0.6411   -0.2854    0.0000 C.ar      1 <0>        0.00000
     23 O3         -0.1435   -0.0305    0.0000 O.3       1 <0>        0.00000
     24 C19         1.3556    0.1271    0.0000 C.ar      1 <0>        0.00000
     25 C20         2.0701   -0.2854    0.0000 C.ar      1 <0>        0.00000
     26 C21         2.0701   -1.1104    0.0000 C.ar      1 <0>        0.00000
     27 C22         1.3556   -1.5229    0.0000 C.ar      1 <0>        0.00000
     28 C23        -4.2303   -0.4393    0.0000 C.2       1 <0>        0.00000
     29 O4         -3.5629    0.0456    0.0000 O.2       1 <0>        0.00000
     30 C24        -4.9840   -0.1038    0.0000 C.ar      1 <0>        0.00000
     31 C25        -5.6514   -0.5887    0.0000 C.ar      1 <0>        0.00000
     32 C26        -6.4051   -0.2531    0.0000 C.ar      1 <0>        0.00000
     33 C27        -6.4913    0.5673    0.0000 C.ar      1 <0>        0.00000
     34 Cl1        -7.2450    0.9029    0.0000 Cl        1 <0>        0.00000
     35 C28        -5.8239    1.0523    0.0000 C.ar      1 <0>        0.00000
     36 C29        -5.0702    0.7167    0.0000 C.ar      1 <0>        0.00000
     37 Cl2        -4.4028    1.2016    0.0000 Cl        1 <0>        0.00000
     38 H1         -3.9716   -2.9008    0.0000 H         1 <0>        0.00000
     39 H2         -4.8115   -1.7447    0.0000 H         1 <0>        0.00000
     40 H3         -5.5652   -1.4092    0.0000 H         1 <0>        0.00000
     41 H4         -5.5652   -1.4092    0.0000 H         1 <0>        0.00000
     42 H5         -6.1464   -2.7146    0.0000 H         1 <0>        0.00000
     43 H6         -6.8138   -3.1995    0.0000 H         1 <0>        0.00000
     44 H7         -7.5675   -2.8639    0.0000 H         1 <0>        0.00000
     45 H8         -7.6538   -2.0435    0.0000 H         1 <0>        0.00000
     46 H9         -6.9863   -1.5585    0.0000 H         1 <0>        0.00000
     47 H10        -3.3904   -1.5954    0.0000 H         1 <0>        0.00000
     48 H11        -3.3904   -1.5954    0.0000 H         1 <0>        0.00000
     49 H12        -2.7230   -0.2854    0.0000 H         1 <0>        0.00000
     50 H13        -1.9384   -0.0305    0.0000 H         1 <0>        0.00000
     51 H14        -0.1435   -1.3654    0.0000 H         1 <0>        0.00000
     52 H15         1.3556    0.1271    0.0000 H         1 <0>        0.00000
     53 H16         2.0701   -0.2854    0.0000 H         1 <0>        0.00000
     54 H17         2.0701   -1.1104    0.0000 H         1 <0>        0.00000
     55 H18         1.3556   -1.5229    0.0000 H         1 <0>        0.00000
     56 H19        -5.6514   -0.5887    0.0000 H         1 <0>        0.00000
     57 H20        -6.4051   -0.2531    0.0000 H         1 <0>        0.00000
     58 H21        -5.8239    1.0523    0.0000 H         1 <0>        0.00000
@<TRIPOS>BOND
     1    1    2 1
     2    2    3 2
     3    2    4 1
     4    4    5 1
     5    5    6 1
     6    6    7 ar
     7    7    8 ar
     8    8    9 ar
     9    9   10 ar
    10   10   11 ar
    11    6   11 ar
    12    4   12 1
    13   12   13 1
    14   13   14 1
    15   14   15 2
    16   15   16 1
    17   16   17 2
    18   17   18 1
    19   14   18 1
    20   17   19 1
    21   19   20 2
    22   20   21 1
    23   21   22 ar
    24   22   23 1
    25   19   23 1
    26   22   24 ar
    27   24   25 ar
    28   25   26 ar
    29   26   27 ar
    30   21   27 ar
    31   12   28 am
    32   28   29 2
    33   28   30 1
    34   30   31 ar
    35   31   32 ar
    36   32   33 ar
    37   33   34 1
    38   33   35 ar
    39   35   36 ar
    40   30   36 ar
    41   36   37 1
    42    1   38 1
    43    4   39 1
    44    5   40 1
    45    5   41 1
    46    7   42 1
    47    8   43 1
    48    9   44 1
    49   10   45 1
    50   11   46 1
    51   13   47 1
    52   13   48 1
    53   15   49 1
    54   16   50 1
    55   20   51 1
    56   24   52 1
    57   25   53 1
    58   26   54 1
    59   27   55 1
    60   31   56 1
    61   32   57 1
    62   35   58 1
@<TRIPOS>SUBSTRUCTURE
     1 <0>         1 GROUP 0 A     ****
@<TRIPOS>MOLECULE
*****
    9     8     1     0     0
SMALL
NO_CHARGES

@<TRIPOS>ATOM
      1 N1          1.2375    0.7145    0.0000 N.pl3     1 <0>        0.00000
      2 C1          0.8250    0.0000    0.0000 C.2       1 <0>        0.00000
      3 C2          0.0000    0.0000    0.0000 C.2       1 <0>        0.00000
      4 S1         -0.4125   -0.7145    0.0000 S.3       1 <0>        0.00000
      5 H1          1.2375    0.7145    0.0000 H         1 <0>        0.00000
      6 H2          1.2375    0.7145    0.0000 H         1 <0>        0.00000
      7 H3          0.8250    0.0000    0.0000 H         1 <0>        0.00000
      8 H4          0.0000    0.0000    0.0000 H         1 <0>        0.00000
      9 H5         -0.4125   -0.7145    0.0000 H         1 <0>        0.00000
@<TRIPOS>BOND
     1    1    2 1
     2    2    3 2
     3    3    4 1
     4    1    5 1
     5    1    6 1
     6    2    7 1
     7    3    8 1
     8    4    9 1
@<TRIPOS>SUBSTRUCTURE
     1 <0>         1 GROUP 0 A     ****
@<TRIPOS>MOLECULE
*****
   79    82     1     0     0
SMALL
NO_CHARGES

@<TRIPOS>ATOM
      1 C1          1.5971   -3.0967    0.0000 C.3       1 <0>        0.00000
      2 C2          0.8826   -2.6842    0.0000 C.2       1 <0>        0.00000
      3 O1          0.1681   -3.0967    0.0000 O.2       1 <0>        0.00000
      4 N1          0.8826   -1.8592    0.0000 N.am      1 <0>        0.00000
      5 C3          1.5971   -1.4467    0.0000 C.3       1 <0>        0.00000
      6 C4          1.5971   -0.6217    0.0000 C.3       1 <0>        0.00000
      7 C5          0.8826   -0.2092    0.0000 C.ar      1 <0>        0.00000
      8 C6          0.1681   -0.6217    0.0000 C.ar      1 <0>        0.00000
      9 C7         -0.5463   -0.2092    0.0000 C.ar      1 <0>        0.00000
     10 C8         -0.5463    0.6158    0.0000 C.ar      1 <0>        0.00000
     11 C9          0.1681    1.0283    0.0000 C.ar      1 <0>        0.00000
     12 C10         0.8826    0.6158    0.0000 C.ar      1 <0>        0.00000
     13 P1          0.1681    1.8533    0.0000 P.3       1 <0>        0.00000
     14 O2          0.1681    2.6783    0.0000 O.3       1 <0>        0.00000
     15 O3          0.9931    1.8533    0.0000 O.3       1 <0>        0.00000
     16 O4         -0.6569    1.8533    0.0000 O.2       1 <0>        0.00000
     17 P2         -1.2608    1.0283    0.0000 P.3       1 <0>        0.00000
     18 O5         -1.6733    0.3139    0.0000 O.3       1 <0>        0.00000
     19 O6         -1.0893    1.8353    0.0000 O.3       1 <0>        0.00000
     20 O7         -1.9753    1.4408    0.0000 O.2       1 <0>        0.00000
     21 C11         2.3116   -1.8592    0.0000 C.2       1 <0>        0.00000
     22 O8          3.0260   -1.4467    0.0000 O.2       1 <0>        0.00000
     23 N2          2.3116   -2.6842    0.0000 N.am      1 <0>        0.00000
     24 C12         3.0260   -3.0967    0.0000 C.3       1 <0>        0.00000
     25 C13         3.7077   -2.6319    0.0000 C.3       1 <0>        0.00000
     26 C14         4.4960   -2.8751    0.0000 C.3       1 <0>        0.00000
     27 C15         4.7974   -3.6431    0.0000 C.3       1 <0>        0.00000
     28 C16         4.3849   -4.3575    0.0000 C.3       1 <0>        0.00000
     29 N3          3.5691   -4.4805    0.0000 N.am      1 <0>        0.00000
     30 C17         3.3260   -5.2688    0.0000 C.3       1 <0>        0.00000
     31 C18         3.8871   -5.8736    0.0000 C.ar      1 <0>        0.00000
     32 C19         4.6914   -5.6900    0.0000 C.ar      1 <0>        0.00000
     33 C20         5.2526   -6.2948    0.0000 C.ar      1 <0>        0.00000
     34 C21         5.0094   -7.0831    0.0000 C.ar      1 <0>        0.00000
     35 C22         4.2051   -7.2667    0.0000 C.ar      1 <0>        0.00000
     36 C23         3.6439   -6.6620    0.0000 C.ar      1 <0>        0.00000
     37 C24         5.5705   -7.6879    0.0000 C.ar      1 <0>        0.00000
     38 C25         6.3749   -7.5043    0.0000 C.ar      1 <0>        0.00000
     39 C26         6.9360   -8.1091    0.0000 C.ar      1 <0>        0.00000
     40 C27         6.6928   -8.8974    0.0000 C.ar      1 <0>        0.00000
     41 C28         5.8885   -9.0810    0.0000 C.ar      1 <0>        0.00000
     42 C29         5.3274   -8.4763    0.0000 C.ar      1 <0>        0.00000
     43 C30         2.9644   -3.9193    0.0000 C.2       1 <0>        0.00000
     44 O9          2.1964   -4.2208    0.0000 O.2       1 <0>        0.00000
     45 H1          1.5971   -3.0967    0.0000 H         1 <0>        0.00000
     46 H2          1.5971   -3.0967    0.0000 H         1 <0>        0.00000
     47 H3          1.5971   -3.0967    0.0000 H         1 <0>        0.00000
     48 H4          0.8826   -1.8592    0.0000 H         1 <0>        0.00000
     49 H5          1.5971   -1.4467    0.0000 H         1 <0>        0.00000
     50 H6          1.5971   -0.6217    0.0000 H         1 <0>        0.00000
     51 H7          1.5971   -0.6217    0.0000 H         1 <0>        0.00000
     52 H8          0.1681   -0.6217    0.0000 H         1 <0>        0.00000
     53 H9         -0.5463   -0.2092    0.0000 H         1 <0>        0.00000
     54 H10         0.8826    0.6158    0.0000 H         1 <0>        0.00000
     55 H11         0.1681    2.6783    0.0000 H         1 <0>        0.00000
     56 H12         0.9931    1.8533    0.0000 H         1 <0>        0.00000
     57 H13        -1.6733    0.3139    0.0000 H         1 <0>        0.00000
     58 H14        -1.0893    1.8353    0.0000 H         1 <0>        0.00000
     59 H15         2.3116   -2.6842    0.0000 H         1 <0>        0.00000
     60 H16         3.0260   -3.0967    0.0000 H         1 <0>        0.00000
     61 H17         3.7077   -2.6319    0.0000 H         1 <0>        0.00000
     62 H18         3.7077   -2.6319    0.0000 H         1 <0>        0.00000
     63 H19         4.4960   -2.8751    0.0000 H         1 <0>        0.00000
     64 H20         4.4960   -2.8751    0.0000 H         1 <0>        0.00000
     65 H21         4.7974   -3.6431    0.0000 H         1 <0>        0.00000
     66 H22         4.7974   -3.6431    0.0000 H         1 <0>        0.00000
     67 H23         4.3849   -4.3575    0.0000 H         1 <0>        0.00000
     68 H24         4.3849   -4.3575    0.0000 H         1 <0>        0.00000
     69 H25         3.3260   -5.2688    0.0000 H         1 <0>        0.00000
     70 H26         3.3260   -5.2688    0.0000 H         1 <0>        0.00000
     71 H27         4.6914   -5.6900    0.0000 H         1 <0>        0.00000
     72 H28         5.2526   -6.2948    0.0000 H         1 <0>        0.00000
     73 H29         4.2051   -7.2667    0.0000 H         1 <0>        0.00000
     74 H30         3.6439   -6.6620    0.0000 H         1 <0>        0.00000
     75 H31         6.3749   -7.5043    0.0000 H         1 <0>        0.00000
     76 H32         6.9360   -8.1091    0.0000 H         1 <0>        0.00000
     77 H33         6.6928   -8.8974    0.0000 H         1 <0>        0.00000
     78 H34         5.8885   -9.0810    0.0000 H         1 <0>        0.00000
     79 H35         5.3274   -8.4763    0.0000 H         1 <0>        0.00000
@<TRIPOS>BOND
     1    1    2 1
     2    2    3 2
     3    2    4 am
     4    4    5 1
     5    5    6 1
     6    6    7 1
     7    7    8 ar
     8    8    9 ar
     9    9   10 ar
    10   10   11 ar
    11   11   12 ar
    12    7   12 ar
    13   11   13 1
    14   13   14 1
    15   13   15 1
    16   13   16 2
    17   10   17 1
    18   17   18 1
    19   17   19 1
    20   17   20 2
    21    5   21 1
    22   21   22 2
    23   21   23 am
    24   23   24 1
    25   24   25 1
    26   25   26 1
    27   26   27 1
    28   27   28 1
    29   28   29 1
    30   29   30 1
    31   30   31 1
    32   31   32 ar
    33   32   33 ar
    34   33   34 ar
    35   34   35 ar
    36   35   36 ar
    37   31   36 ar
    38   34   37 1
    39   37   38 ar
    40   38   39 ar
    41   39   40 ar
    42   40   41 ar
    43   41   42 ar
    44   37   42 ar
    45   29   43 am
    46   24   43 1
    47   43   44 2
    48    1   45 1
    49    1   46 1
    50    1   47 1
    51    4   48 1
    52    5   49 1
    53    6   50 1
    54    6   51 1
    55    8   52 1
    56    9   53 1
    57   12   54 1
    58   14   55 1
    59   15   56 1
    60   18   57 1
    61   19   58 1
    62   23   59 1
    63   24   60 1
    64   25   61 1
    65   25   62 1
    66   26   63 1
    67   26   64 1
    68   27   65 1
    69   27   66 1
    70   28   67 1
    71   28   68 1
    72   30   69 1
    73   30   70 1
    74   32   71 1
    75   33   72 1
    76   35   73 1
    77   36   74 1
    78   38   75 1
    79   39   76 1
    80   40   77 1
    81   41   78 1
    82   42   79 1
@<TRIPOS>SUBSTRUCTURE
     1 <0>         1 GROUP 0 A     ****
@<TRIPOS>MOLECULE
059
   63    64     1     0     0
SMALL
NO_CHARGES

@<TRIPOS>ATOM
      1 C1         -3.6483   -1.6913    0.0000 C.ar      1 <0>        0.00000
      2 C2         -4.3265   -2.1611    0.0000 C.ar      1 <0>        0.00000
      3 C3         -5.0724   -1.8087    0.0000 C.ar      1 <0>        0.00000
      4 C4         -5.1402   -0.9865    0.0000 C.ar      1 <0>        0.00000
      5 C5         -4.4621   -0.5167    0.0000 C.ar      1 <0>        0.00000
      6 C6         -3.7161   -0.8691    0.0000 C.ar      1 <0>        0.00000
      7 C7         -3.0380   -0.3992    0.0000 C.3       1 <0>        0.00000
      8 C8         -2.2920   -0.7516    0.0000 C.3       1 <0>        0.00000
      9 S1         -1.6139   -0.2818    0.0000 S.o2      1 <0>        0.00000
     10 O1         -2.0837    0.3964    0.0000 O.2       1 <0>        0.00000
     11 O2         -1.1440   -0.9599    0.0000 O.2       1 <0>        0.00000
     12 N1         -0.9357    0.1881    0.0000 N.pl3     1 <0>        0.00000
     13 C9         -0.1898   -0.1643    0.0000 C.3       1 <0>        0.00000
     14 C10        -0.1219   -0.9865    0.0000 C.3       1 <0>        0.00000
     15 C11         0.6240   -1.3389    0.0000 C.3       1 <0>        0.00000
     16 C12        -0.8001   -1.4564    0.0000 C.3       1 <0>        0.00000
     17 P1          0.4884    0.3055    0.0000 P.3       1 <0>        0.00000
     18 O3          0.0185    0.9837    0.0000 O.3       1 <0>        0.00000
     19 O4          0.9582   -0.3726    0.0000 O.2       1 <0>        0.00000
     20 C13         1.1665    0.7754    0.0000 C.3       1 <0>        0.00000
     21 C14         1.9125    0.4230    0.0000 C.3       1 <0>        0.00000
     22 C15         1.9803   -0.3992    0.0000 C.2       1 <0>        0.00000
     23 O5          2.7263   -0.7516    0.0000 O.2       1 <0>        0.00000
     24 O6          1.3022   -0.8691    0.0000 O.3       1 <0>        0.00000
     25 C16         2.5906    0.8928    0.0000 C.ar      1 <0>        0.00000
     26 C17         3.3366    0.5404    0.0000 C.ar      1 <0>        0.00000
     27 C18         2.5228    1.7150    0.0000 C.ar      1 <0>        0.00000
     28 C19         3.2010    2.1849    0.0000 C.ar      1 <0>        0.00000
     29 C20         3.9469    1.8325    0.0000 C.ar      1 <0>        0.00000
     30 C21         4.0147    1.0103    0.0000 C.ar      1 <0>        0.00000
     31 C22         4.7607    0.6579    0.0000 C.3       1 <0>        0.00000
     32 N2          5.4388    1.1277    0.0000 N.3       1 <0>        0.00000
     33 H1         -0.2378    0.4176    0.0000 H         1 <0>        0.00000
     34 H2          1.8645    1.0049    0.0000 H         1 <0>        0.00000
     35 H3         -3.6483   -1.6913    0.0000 H         1 <0>        0.00000
     36 H4         -4.3265   -2.1611    0.0000 H         1 <0>        0.00000
     37 H5         -5.0724   -1.8087    0.0000 H         1 <0>        0.00000
     38 H6         -5.1402   -0.9865    0.0000 H         1 <0>        0.00000
     39 H7         -4.4621   -0.5167    0.0000 H         1 <0>        0.00000
     40 H8         -3.0380   -0.3992    0.0000 H         1 <0>        0.00000
     41 H9         -3.0380   -0.3992    0.0000 H         1 <0>        0.00000
     42 H10        -2.2920   -0.7516    0.0000 H         1 <0>        0.00000
     43 H11        -2.2920   -0.7516    0.0000 H         1 <0>        0.00000
     44 H12        -0.9357    0.1881    0.0000 H         1 <0>        0.00000
     45 H13        -0.1219   -0.9865    0.0000 H         1 <0>        0.00000
     46 H14         0.6240   -1.3389    0.0000 H         1 <0>        0.00000
     47 H15         0.6240   -1.3389    0.0000 H         1 <0>        0.00000
     48 H16         0.6240   -1.3389    0.0000 H         1 <0>        0.00000
     49 H17        -0.8001   -1.4564    0.0000 H         1 <0>        0.00000
     50 H18        -0.8001   -1.4564    0.0000 H         1 <0>        0.00000
     51 H19        -0.8001   -1.4564    0.0000 H         1 <0>        0.00000
     52 H20         0.0185    0.9837    0.0000 H         1 <0>        0.00000
     53 H21         1.1665    0.7754    0.0000 H         1 <0>        0.00000
     54 H22         1.1665    0.7754    0.0000 H         1 <0>        0.00000
     55 H23         1.3022   -0.8691    0.0000 H         1 <0>        0.00000
     56 H24         3.3366    0.5404    0.0000 H         1 <0>        0.00000
     57 H25         2.5228    1.7150    0.0000 H         1 <0>        0.00000
     58 H26         3.2010    2.1849    0.0000 H         1 <0>        0.00000
     59 H27         3.9469    1.8325    0.0000 H         1 <0>        0.00000
     60 H28         4.7607    0.6579    0.0000 H         1 <0>        0.00000
     61 H29         4.7607    0.6579    0.0000 H         1 <0>        0.00000
     62 H30         5.4388    1.1277    0.0000 H         1 <0>        0.00000
     63 H31         5.4388    1.1277    0.0000 H         1 <0>        0.00000
@<TRIPOS>BOND
     1    1    2 ar
     2    1    6 ar
     3    2    3 ar
     4    3    4 ar
     5    4    5 ar
     6    5    6 ar
     7    6    7 1
     8    7    8 1
     9    8    9 1
    10    9   12 1
    11    9   11 2
    12    9   10 2
    13   12   13 1
    14   13   17 1
    15   13   14 1
    16   13   33 1
    17   14   15 1
    18   14   16 1
    19   17   20 1
    20   17   19 2
    21   17   18 1
    22   20   21 1
    23   21   25 1
    24   21   22 1
    25   21   34 1
    26   22   23 2
    27   22   24 1
    28   25   27 ar
    29   25   26 ar
    30   26   30 ar
    31   27   28 ar
    32   28   29 ar
    33   29   30 ar
    34   30   31 1
    35   31   32 1
    36    1   35 1
    37    2   36 1
    38    3   37 1
    39    4   38 1
    40    5   39 1
    41    7   40 1
    42    7   41 1
    43    8   42 1
    44    8   43 1
    45   12   44 1
    46   14   45 1
    47   15   46 1
    48   15   47 1
    49   15   48 1
    50   16   49 1
    51   16   50 1
    52   16   51 1
    53   18   52 1
    54   20   53 1
    55   20   54 1
    56   24   55 1
    57   26   56 1
    58   27   57 1
    59   28   58 1
    60   29   59 1
    61   31   60 1
    62   31   61 1
    63   32   62 1
    64   32   63 1
@<TRIPOS>SUBSTRUCTURE
     1 <0>         1 GROUP 0 A     ****
@<TRIPOS>MOLECULE
*****
   81    83     1     0     0
SMALL
NO_CHARGES

@<TRIPOS>ATOM
      1 C1          0.7934   -7.6032    0.0000 C.3       1 <0>        0.00000
      2 C2          1.2293   -8.3036    0.0000 C.3       1 <0>        0.00000
      3 C3          0.8407   -9.0314    0.0000 C.3       1 <0>        0.00000
      4 C4          2.0538   -8.2763    0.0000 C.3       1 <0>        0.00000
      5 N1          2.4898   -8.9767    0.0000 N.am      1 <0>        0.00000
      6 C5          2.1012   -9.7044    0.0000 C.2       1 <0>        0.00000
      7 O1          1.2766   -9.7318    0.0000 O.2       1 <0>        0.00000
      8 C6          2.5371  -10.4049    0.0000 C.ar      1 <0>        0.00000
      9 C7          3.3617  -10.3775    0.0000 C.ar      1 <0>        0.00000
     10 C8          3.7976  -11.0780    0.0000 C.ar      1 <0>        0.00000
     11 C9          3.4090  -11.8057    0.0000 C.ar      1 <0>        0.00000
     12 C10         2.5844  -11.8330    0.0000 C.ar      1 <0>        0.00000
     13 C11         2.1485  -11.1326    0.0000 C.ar      1 <0>        0.00000
     14 C12         3.8449  -12.5061    0.0000 C.2       1 <0>        0.00000
     15 O2          4.6695  -12.4788    0.0000 O.2       1 <0>        0.00000
     16 N2          3.4563  -13.2339    0.0000 N.am      1 <0>        0.00000
     17 C13         3.8922  -13.9343    0.0000 C.3       1 <0>        0.00000
     18 C14         3.5036  -14.6620    0.0000 C.3       1 <0>        0.00000
     19 O3          2.6791  -14.6893    0.0000 O.3       1 <0>        0.00000
     20 C15         2.2431  -13.9889    0.0000 C.3       1 <0>        0.00000
     21 C16         2.6318  -13.2612    0.0000 C.3       1 <0>        0.00000
     22 C17         2.4425   -7.5485    0.0000 C.2       1 <0>        0.00000
     23 O4          3.2670   -7.5212    0.0000 O.2       1 <0>        0.00000
     24 N3          2.0065   -6.8481    0.0000 N.am      1 <0>        0.00000
     25 C18         1.1836   -6.7891    0.0000 C.3       1 <0>        0.00000
     26 C19         0.9855   -5.9883    0.0000 C.3       1 <0>        0.00000
     27 C20         1.6859   -5.5523    0.0000 C.3       1 <0>        0.00000
     28 C21         2.3169   -6.0838    0.0000 C.3       1 <0>        0.00000
     29 C22         3.1178   -5.8856    0.0000 C.2       1 <0>        0.00000
     30 O5          3.3466   -5.0930    0.0000 O.2       1 <0>        0.00000
     31 N4          3.6898   -6.4801    0.0000 N.am      1 <0>        0.00000
     32 C23         4.4907   -6.2819    0.0000 C.3       1 <0>        0.00000
     33 C24         4.7195   -5.4893    0.0000 C.3       1 <0>        0.00000
     34 C25         5.5203   -5.2911    0.0000 C.3       1 <0>        0.00000
     35 C26         4.1474   -4.8948    0.0000 C.3       1 <0>        0.00000
     36 C27         5.0627   -6.8764    0.0000 C.2       1 <0>        0.00000
     37 O6          4.8339   -7.6690    0.0000 O.2       1 <0>        0.00000
     38 C28         5.8635   -6.6782    0.0000 C.3       1 <0>        0.00000
     39 F1          5.6654   -5.8774    0.0000 F         1 <0>        0.00000
     40 F2          6.0617   -7.4791    0.0000 F         1 <0>        0.00000
     41 C29         6.6644   -6.4801    0.0000 C.3       1 <0>        0.00000
     42 F3          7.4652   -6.2819    0.0000 F         1 <0>        0.00000
     43 F4          6.8626   -7.2809    0.0000 F         1 <0>        0.00000
     44 F5          6.4662   -5.6792    0.0000 F         1 <0>        0.00000
     45 H1          0.7934   -7.6032    0.0000 H         1 <0>        0.00000
     46 H2          0.7934   -7.6032    0.0000 H         1 <0>        0.00000
     47 H3          0.7934   -7.6032    0.0000 H         1 <0>        0.00000
     48 H4          1.2293   -8.3036    0.0000 H         1 <0>        0.00000
     49 H5          0.8407   -9.0314    0.0000 H         1 <0>        0.00000
     50 H6          0.8407   -9.0314    0.0000 H         1 <0>        0.00000
     51 H7          0.8407   -9.0314    0.0000 H         1 <0>        0.00000
     52 H8          2.0538   -8.2763    0.0000 H         1 <0>        0.00000
     53 H9          2.4898   -8.9767    0.0000 H         1 <0>        0.00000
     54 H10         3.3617  -10.3775    0.0000 H         1 <0>        0.00000
     55 H11         3.7976  -11.0780    0.0000 H         1 <0>        0.00000
     56 H12         2.5844  -11.8330    0.0000 H         1 <0>        0.00000
     57 H13         2.1485  -11.1326    0.0000 H         1 <0>        0.00000
     58 H14         3.8922  -13.9343    0.0000 H         1 <0>        0.00000
     59 H15         3.8922  -13.9343    0.0000 H         1 <0>        0.00000
     60 H16         3.5036  -14.6620    0.0000 H         1 <0>        0.00000
     61 H17         3.5036  -14.6620    0.0000 H         1 <0>        0.00000
     62 H18         2.2431  -13.9889    0.0000 H         1 <0>        0.00000
     63 H19         2.2431  -13.9889    0.0000 H         1 <0>        0.00000
     64 H20         2.6318  -13.2612    0.0000 H         1 <0>        0.00000
     65 H21         2.6318  -13.2612    0.0000 H         1 <0>        0.00000
     66 H22         1.1836   -6.7891    0.0000 H         1 <0>        0.00000
     67 H23         1.1836   -6.7891    0.0000 H         1 <0>        0.00000
     68 H24         0.9855   -5.9883    0.0000 H         1 <0>        0.00000
     69 H25         0.9855   -5.9883    0.0000 H         1 <0>        0.00000
     70 H26         1.6859   -5.5523    0.0000 H         1 <0>        0.00000
     71 H27         1.6859   -5.5523    0.0000 H         1 <0>        0.00000
     72 H28         2.3169   -6.0838    0.0000 H         1 <0>        0.00000
     73 H29         3.6898   -6.4801    0.0000 H         1 <0>        0.00000
     74 H30         4.4907   -6.2819    0.0000 H         1 <0>        0.00000
     75 H31         4.7195   -5.4893    0.0000 H         1 <0>        0.00000
     76 H32         5.5203   -5.2911    0.0000 H         1 <0>        0.00000
     77 H33         5.5203   -5.2911    0.0000 H         1 <0>        0.00000
     78 H34         5.5203   -5.2911    0.0000 H         1 <0>        0.00000
     79 H35         4.1474   -4.8948    0.0000 H         1 <0>        0.00000
     80 H36         4.1474   -4.8948    0.0000 H         1 <0>        0.00000
     81 H37         4.1474   -4.8948    0.0000 H         1 <0>        0.00000
@<TRIPOS>BOND
     1    1    2 1
     2    2    3 1
     3    2    4 1
     4    4    5 1
     5    5    6 am
     6    6    7 2
     7    6    8 1
     8    8    9 ar
     9    9   10 ar
    10   10   11 ar
    11   11   12 ar
    12   12   13 ar
    13    8   13 ar
    14   11   14 1
    15   14   15 2
    16   14   16 am
    17   16   17 1
    18   17   18 1
    19   18   19 1
    20   19   20 1
    21   20   21 1
    22   16   21 1
    23    4   22 1
    24   22   23 2
    25   22   24 am
    26   24   25 1
    27   25   26 1
    28   26   27 1
    29   27   28 1
    30   24   28 1
    31   28   29 1
    32   29   30 2
    33   29   31 am
    34   31   32 1
    35   32   33 1
    36   33   34 1
    37   33   35 1
    38   32   36 1
    39   36   37 2
    40   36   38 1
    41   38   39 1
    42   38   40 1
    43   38   41 1
    44   41   42 1
    45   41   43 1
    46   41   44 1
    47    1   45 1
    48    1   46 1
    49    1   47 1
    50    2   48 1
    51    3   49 1
    52    3   50 1
    53    3   51 1
    54    4   52 1
    55    5   53 1
    56    9   54 1
    57   10   55 1
    58   12   56 1
    59   13   57 1
    60   17   58 1
    61   17   59 1
    62   18   60 1
    63   18   61 1
    64   20   62 1
    65   20   63 1
    66   21   64 1
    67   21   65 1
    68   25   66 1
    69   25   67 1
    70   26   68 1
    71   26   69 1
    72   27   70 1
    73   27   71 1
    74   28   72 1
    75   31   73 1
    76   32   74 1
    77   33   75 1
    78   34   76 1
    79   34   77 1
    80   34   78 1
    81   35   79 1
    82   35   80 1
    83   35   81 1
@<TRIPOS>SUBSTRUCTURE
     1 <0>         1 GROUP 0 A     ****
@<TRIPOS>MOLECULE
*****
   28    29     1     0     0
SMALL
NO_CHARGES

@<TRIPOS>ATOM
      1 O1         -3.1034   -0.6979    0.0000 O.3       1 <0>        0.00000
      2 C1         -2.6909    0.0165    0.0000 C.2       1 <0>        0.00000
      3 O2         -3.1034    0.7310    0.0000 O.2       1 <0>        0.00000
      4 C2         -1.8659    0.0165    0.0000 C.2       1 <0>        0.00000
      5 O3         -1.4534    0.7310    0.0000 O.2       1 <0>        0.00000
      6 N1         -1.4534   -0.6979    0.0000 N.am      1 <0>        0.00000
      7 C3         -0.6284   -0.6979    0.0000 C.ar      1 <0>        0.00000
      8 C4         -0.1435   -1.3654    0.0000 C.ar      1 <0>        0.00000
      9 C5         -0.3984   -2.1500    0.0000 C.2       1 <0>        0.00000
     10 O4          0.1536   -2.7631    0.0000 O.3       1 <0>        0.00000
     11 O5         -1.2054   -2.3215    0.0000 O.2       1 <0>        0.00000
     12 C6          0.6411   -1.1104    0.0000 C.ar      1 <0>        0.00000
     13 C7          0.6411   -0.2854    0.0000 C.ar      1 <0>        0.00000
     14 C8          1.3556    0.1271    0.0000 C.3       1 <0>        0.00000
     15 N2          2.0701   -0.2854    0.0000 N.3       1 <0>        0.00000
     16 C9          2.0701   -1.1104    0.0000 C.3       1 <0>        0.00000
     17 C10         1.3556   -1.5229    0.0000 C.3       1 <0>        0.00000
     18 S1         -0.1435   -0.0305    0.0000 S.3       1 <0>        0.00000
     19 H1         -3.1034   -0.6979    0.0000 H         1 <0>        0.00000
     20 H2         -1.4534   -0.6979    0.0000 H         1 <0>        0.00000
     21 H3          0.1536   -2.7631    0.0000 H         1 <0>        0.00000
     22 H4          1.3556    0.1271    0.0000 H         1 <0>        0.00000
     23 H5          1.3556    0.1271    0.0000 H         1 <0>        0.00000
     24 H6          2.0701   -0.2854    0.0000 H         1 <0>        0.00000
     25 H7          2.0701   -1.1104    0.0000 H         1 <0>        0.00000
     26 H8          2.0701   -1.1104    0.0000 H         1 <0>        0.00000
     27 H9          1.3556   -1.5229    0.0000 H         1 <0>        0.00000
     28 H10         1.3556   -1.5229    0.0000 H         1 <0>        0.00000
@<TRIPOS>BOND
     1    1    2 1
     2    2    3 2
     3    2    4 1
     4    4    5 2
     5    4    6 am
     6    6    7 1
     7    7    8 2
     8    8    9 1
     9    9   10 1
    10    9   11 2
    11    8   12 1
    12   12   13 2
    13   13   14 1
    14   14   15 1
    15   15   16 1
    16   16   17 1
    17   12   17 1
    18   13   18 1
    19    7   18 1
    20    1   19 1
    21    6   20 1
    22   10   21 1
    23   14   22 1
    24   14   23 1
    25   15   24 1
    26   16   25 1
    27   16   26 1
    28   17   27 1
    29   17   28 1
@<TRIPOS>SUBSTRUCTURE
     1 <0>         1 GROUP 0 A     ****
@<TRIPOS>MOLECULE
S13
   43    45     1     0     0
SMALL
NO_CHARGES

@<TRIPOS>ATOM
      1 C1         -2.0204    0.0166    0.0000 C.ar      1 <0>        0.00000
      2 C2         -2.6878   -0.4683    0.0000 C.ar      1 <0>        0.00000
      3 C3         -2.6016   -1.2888    0.0000 C.ar      1 <0>        0.00000
      4 C4         -3.2691   -1.7737    0.0000 C.3       1 <0>        0.00000
      5 C5         -1.8479   -1.6244    0.0000 C.ar      1 <0>        0.00000
      6 C6         -1.1805   -1.1395    0.0000 C.ar      1 <0>        0.00000
      7 C7         -1.2667   -0.3190    0.0000 C.ar      1 <0>        0.00000
      8 C8         -0.5993    0.1660    0.0000 C.3       1 <0>        0.00000
      9 C9          0.1853   -0.0890    0.0000 C.3       1 <0>        0.00000
     10 N1         -0.5993    0.9910    0.0000 N.3       1 <0>        0.00000
     11 O1          0.1853    1.2459    0.0000 O.3       1 <0>        0.00000
     12 C10         0.6702    0.5785    0.0000 C.3       1 <0>        0.00000
     13 O2          1.0827    1.2929    0.0000 O.3       1 <0>        0.00000
     14 C11         1.9077    1.2929    0.0000 C.3       1 <0>        0.00000
     15 C12         2.3202    2.0074    0.0000 C.3       1 <0>        0.00000
     16 O3          1.9077    2.7219    0.0000 O.3       1 <0>        0.00000
     17 C13         2.3202    0.5785    0.0000 C.3       1 <0>        0.00000
     18 O4          3.1452    0.5785    0.0000 O.3       1 <0>        0.00000
     19 C14         1.9077   -0.1360    0.0000 C.3       1 <0>        0.00000
     20 O5          2.3202   -0.8505    0.0000 O.3       1 <0>        0.00000
     21 C15         1.0827   -0.1360    0.0000 C.3       1 <0>        0.00000
     22 O6          0.6702   -0.8505    0.0000 O.3       1 <0>        0.00000
     23 H1         -0.5079   -0.4108    0.0000 H         1 <0>        0.00000
     24 H2          1.6158    1.7986    0.0000 H         1 <0>        0.00000
     25 H3          2.6122    1.0841    0.0000 H         1 <0>        0.00000
     26 H4          2.4917   -0.1360    0.0000 H         1 <0>        0.00000
     27 H5          1.3747   -0.6417    0.0000 H         1 <0>        0.00000
     28 H6         -2.0204    0.0166    0.0000 H         1 <0>        0.00000
     29 H7         -2.6878   -0.4683    0.0000 H         1 <0>        0.00000
     30 H8         -3.2691   -1.7737    0.0000 H         1 <0>        0.00000
     31 H9         -3.2691   -1.7737    0.0000 H         1 <0>        0.00000
     32 H10        -3.2691   -1.7737    0.0000 H         1 <0>        0.00000
     33 H11        -1.8479   -1.6244    0.0000 H         1 <0>        0.00000
     34 H12        -1.1805   -1.1395    0.0000 H         1 <0>        0.00000
     35 H13         0.1853   -0.0890    0.0000 H         1 <0>        0.00000
     36 H14         0.1853   -0.0890    0.0000 H         1 <0>        0.00000
     37 H15        -0.5993    0.9910    0.0000 H         1 <0>        0.00000
     38 H16         2.3202    2.0074    0.0000 H         1 <0>        0.00000
     39 H17         2.3202    2.0074    0.0000 H         1 <0>        0.00000
     40 H18         1.9077    2.7219    0.0000 H         1 <0>        0.00000
     41 H19         3.1452    0.5785    0.0000 H         1 <0>        0.00000
     42 H20         2.3202   -0.8505    0.0000 H         1 <0>        0.00000
     43 H21         0.6702   -0.8505    0.0000 H         1 <0>        0.00000
@<TRIPOS>BOND
     1    1    7 ar
     2    1    2 ar
     3    2    3 ar
     4    3    5 ar
     5    3    4 1
     6    5    6 ar
     7    6    7 ar
     8    7    8 1
     9    8   23 1
    10    8    9 1
    11    8   10 1
    12   10   11 1
    13   12   13 1
    14   11   12 1
    15    9   12 1
    16   14   15 1
    17   13   14 1
    18   14   24 1
    19   15   16 1
    20   14   17 1
    21   17   25 1
    22   17   18 1
    23   17   19 1
    24   19   21 1
    25   19   26 1
    26   19   20 1
    27   12   21 1
    28   21   27 1
    29   21   22 1
    30    1   28 1
    31    2   29 1
    32    4   30 1
    33    4   31 1
    34    4   32 1
    35    5   33 1
    36    6   34 1
    37    9   35 1
    38    9   36 1
    39   10   37 1
    40   15   38 1
    41   15   39 1
    42   16   40 1
    43   18   41 1
    44   20   42 1
    45   22   43 1
@<TRIPOS>SUBSTRUCTURE
     1 <0>         1 GROUP 0 A     ****
@<TRIPOS>MOLECULE
3516
   14    14     1     0     0
SMALL
NO_CHARGES

@<TRIPOS>ATOM
      1 O1          2.8075   -0.9034    0.0000 O.2       1 <0>        0.00000
      2 O2          5.6655   -0.9034    0.0000 O.2       1 <0>        0.00000
      3 N1          4.2365   -0.9034    0.0000 N.am      1 <0>        0.00000
      4 N2          4.9509    0.3341    0.0000 N.am      1 <0>        0.00000
      5 C1          3.5220    0.3341    0.0000 C.ar      1 <0>        0.00000
      6 C2          3.5220   -0.4909    0.0000 C.ar      1 <0>        0.00000
      7 C3          4.2365    0.7466    0.0000 C.ar      1 <0>        0.00000
      8 C4          4.9509   -0.4909    0.0000 C.ar      1 <0>        0.00000
      9 C5          2.8075    0.7466    0.0000 C.1       1 <0>        0.00000
     10 C6          2.0930    1.1592    0.0000 C.1       1 <0>        0.00000
     11 H1          4.2365   -0.9034    0.0000 H         1 <0>        0.00000
     12 H2          4.9509    0.3341    0.0000 H         1 <0>        0.00000
     13 H3          4.2365    0.7466    0.0000 H         1 <0>        0.00000
     14 H4          2.0930    1.1592    0.0000 H         1 <0>        0.00000
@<TRIPOS>BOND
     1    1    6 2
     2    2    8 2
     3    3    6 am
     4    3    8 am
     5    4    7 1
     6    4    8 am
     7    5    6 1
     8    5    7 2
     9    5    9 1
    10    9   10 3
    11    3   11 1
    12    4   12 1
    13    7   13 1
    14   10   14 1
@<TRIPOS>SUBSTRUCTURE
     1 <0>         1 GROUP 0 A     ****
@<TRIPOS>MOLECULE
1119
   21    22     1     0     0
SMALL
NO_CHARGES

@<TRIPOS>ATOM
      1 Cl1         5.7524   -0.7138    0.0000 Cl        1 <0>        0.00000
      2 S1          2.9562   -0.6947    0.0000 S.o2      1 <0>        0.00000
      3 O1          3.3523   -1.3807    0.0000 O.2       1 <0>        0.00000
      4 O2          2.5601   -1.3807    0.0000 O.2       1 <0>        0.00000
      5 N1          2.9562    0.8895    0.0000 N.pl3     1 <0>        0.00000
      6 N2          2.2702   -0.2986    0.0000 N.ar      1 <0>        0.00000
      7 C1          3.6422   -0.2986    0.0000 C.ar      1 <0>        0.00000
      8 C2          3.6422    0.4934    0.0000 C.ar      1 <0>        0.00000
      9 C3          2.2702    0.4934    0.0000 C.ar      1 <0>        0.00000
     10 C4          4.3502   -0.7221    0.0000 C.ar      1 <0>        0.00000
     11 C5          4.3502    0.9170    0.0000 C.ar      1 <0>        0.00000
     12 C6          5.0680   -0.3151    0.0000 C.ar      1 <0>        0.00000
     13 C7          5.0680    0.5100    0.0000 C.ar      1 <0>        0.00000
     14 C8          1.5842    0.8895    0.0000 C.3       1 <0>        0.00000
     15 H1          2.9562    0.8895    0.0000 H         1 <0>        0.00000
     16 H2          4.3502   -0.7221    0.0000 H         1 <0>        0.00000
     17 H3          4.3502    0.9170    0.0000 H         1 <0>        0.00000
     18 H4          5.0680    0.5100    0.0000 H         1 <0>        0.00000
     19 H5          1.5842    0.8895    0.0000 H         1 <0>        0.00000
     20 H6          1.5842    0.8895    0.0000 H         1 <0>        0.00000
     21 H7          1.5842    0.8895    0.0000 H         1 <0>        0.00000
@<TRIPOS>BOND
     1    1   12 1
     2    2    3 2
     3    2    4 2
     4    2    6 1
     5    2    7 1
     6    5    8 1
     7    5    9 1
     8    6    9 2
     9    7    8 ar
    10    7   10 ar
    11    8   11 ar
    12    9   14 1
    13   10   12 ar
    14   11   13 ar
    15   12   13 ar
    16    5   15 1
    17   10   16 1
    18   11   17 1
    19   13   18 1
    20   14   19 1
    21   14   20 1
    22   14   21 1
@<TRIPOS>SUBSTRUCTURE
     1 <0>         1 GROUP 0 A     ****
@<TRIPOS>MOLECULE
*****
   42    42     1     0     0
SMALL
NO_CHARGES

@<TRIPOS>ATOM
      1 C1         -1.3246   -1.6195    0.0000 C.3       1 <0>        0.00000
      2 S1         -0.5793   -1.2055    0.0000 S.3       1 <0>        0.00000
      3 C2          0.1246   -1.6195    0.0000 C.3       1 <0>        0.00000
      4 C3          0.8284   -1.2055    0.0000 C.3       1 <0>        0.00000
      5 N1          1.5737   -1.6195    0.0000 N.pl3     1 <0>        0.00000
      6 C4          2.2777   -1.2055    0.0000 C.2       1 <0>        0.00000
      7 C5         -2.0285   -1.2055    0.0000 C.ar      1 <0>        0.00000
      8 N2         -2.0285   -0.3773    0.0000 N.ar      1 <0>        0.00000
      9 C6         -2.8152   -0.1289    0.0000 C.ar      1 <0>        0.00000
     10 S2         -3.3121   -0.7914    0.0000 S.3       1 <0>        0.00000
     11 C7         -2.8152   -1.4538    0.0000 C.ar      1 <0>        0.00000
     12 C8         -3.0636    0.6578    0.0000 C.3       1 <0>        0.00000
     13 C9          3.0231   -1.6195    0.0000 C.2       1 <0>        0.00000
     14 N3         -3.8722    0.8366    0.0000 N.3       1 <0>        0.00000
     15 C10        -4.4468    0.2089    0.0000 C.3       1 <0>        0.00000
     16 C11        -4.1198    1.6195    0.0000 C.3       1 <0>        0.00000
     17 N4          3.7332   -1.1937    0.0000 N.pl3     1 <0>        0.00000
     18 O1          3.7197   -0.3656    0.0000 O.2       1 <0>        0.00000
     19 O2          4.4468   -1.5903    0.0000 O.3       1 <0>        0.00000
     20 N5          2.3091   -0.3880    0.0000 N.pl3     1 <0>        0.00000
     21 C12         1.5947    0.0621    0.0000 C.3       1 <0>        0.00000
     22 H1         -1.3246   -1.6195    0.0000 H         1 <0>        0.00000
     23 H2         -1.3246   -1.6195    0.0000 H         1 <0>        0.00000
     24 H3          0.1246   -1.6195    0.0000 H         1 <0>        0.00000
     25 H4          0.1246   -1.6195    0.0000 H         1 <0>        0.00000
     26 H5          0.8284   -1.2055    0.0000 H         1 <0>        0.00000
     27 H6          0.8284   -1.2055    0.0000 H         1 <0>        0.00000
     28 H7          1.5737   -1.6195    0.0000 H         1 <0>        0.00000
     29 H8         -2.8152   -1.4538    0.0000 H         1 <0>        0.00000
     30 H9         -3.0636    0.6578    0.0000 H         1 <0>        0.00000
     31 H10        -3.0636    0.6578    0.0000 H         1 <0>        0.00000
     32 H11         3.0231   -1.6195    0.0000 H         1 <0>        0.00000
     33 H12        -4.4468    0.2089    0.0000 H         1 <0>        0.00000
     34 H13        -4.4468    0.2089    0.0000 H         1 <0>        0.00000
     35 H14        -4.4468    0.2089    0.0000 H         1 <0>        0.00000
     36 H15        -4.1198    1.6195    0.0000 H         1 <0>        0.00000
     37 H16        -4.1198    1.6195    0.0000 H         1 <0>        0.00000
     38 H17        -4.1198    1.6195    0.0000 H         1 <0>        0.00000
     39 H18         2.3091   -0.3880    0.0000 H         1 <0>        0.00000
     40 H19         1.5947    0.0621    0.0000 H         1 <0>        0.00000
     41 H20         1.5947    0.0621    0.0000 H         1 <0>        0.00000
     42 H21         1.5947    0.0621    0.0000 H         1 <0>        0.00000
@<TRIPOS>BOND
     1    1    2 1
     2    2    3 1
     3    3    4 1
     4    4    5 1
     5    5    6 1
     6    1    7 1
     7    7    8 1
     8    8    9 2
     9    9   10 1
    10   10   11 1
    11    7   11 2
    12    9   12 1
    13    6   13 2
    14   12   14 1
    15   14   15 1
    16   14   16 1
    17   13   17 1
    18   17   18 2
    19   17   19 1
    20    6   20 1
    21   20   21 1
    22    1   22 1
    23    1   23 1
    24    3   24 1
    25    3   25 1
    26    4   26 1
    27    4   27 1
    28    5   28 1
    29   11   29 1
    30   12   30 1
    31   12   31 1
    32   13   32 1
    33   15   33 1
    34   15   34 1
    35   15   35 1
    36   16   36 1
    37   16   37 1
    38   16   38 1
    39   20   39 1
    40   21   40 1
    41   21   41 1
    42   21   42 1
@<TRIPOS>SUBSTRUCTURE
     1 <0>         1 GROUP 0 A     ****
@<TRIPOS>MOLECULE
D93
   58    62     1     0     0
SMALL
NO_CHARGES

@<TRIPOS>ATOM
      1 Cl1         2.8136    4.6536    0.0000 Cl        1 <0>        0.00000
      2 C1          2.0992    4.2411    0.0000 C.ar      1 <0>        0.00000
      3 C2          1.3847    4.6536    0.0000 C.ar      1 <0>        0.00000
      4 C3          0.6702    4.2411    0.0000 C.ar      1 <0>        0.00000
      5 C4          0.6702    3.4161    0.0000 C.ar      1 <0>        0.00000
      6 N1          0.0571    2.8641    0.0000 N.pl3     1 <0>        0.00000
      7 C5          2.0992    3.4161    0.0000 C.ar      1 <0>        0.00000
      8 C6          1.3847    3.0036    0.0000 C.ar      1 <0>        0.00000
      9 C7          1.2132    2.1967    0.0000 C.ar      1 <0>        0.00000
     10 C8          0.3927    2.1104    0.0000 C.ar      1 <0>        0.00000
     11 C9         -0.0198    1.3960    0.0000 C.2       1 <0>        0.00000
     12 O1         -0.8448    1.3960    0.0000 O.2       1 <0>        0.00000
     13 N2          0.3927    0.6815    0.0000 N.am      1 <0>        0.00000
     14 C10        -0.0198   -0.0330    0.0000 C.3       1 <0>        0.00000
     15 C11        -0.8448   -0.0330    0.0000 C.3       1 <0>        0.00000
     16 C12        -1.2573   -0.7475    0.0000 C.3       1 <0>        0.00000
     17 C13        -0.8448   -1.4619    0.0000 C.3       1 <0>        0.00000
     18 C14        -0.0198   -1.4619    0.0000 C.3       1 <0>        0.00000
     19 C15         0.3927   -0.7475    0.0000 C.3       1 <0>        0.00000
     20 N3          1.2177   -0.7475    0.0000 N.am      1 <0>        0.00000
     21 C16         1.6302   -0.0330    0.0000 C.2       1 <0>        0.00000
     22 O2          1.2177    0.6815    0.0000 O.2       1 <0>        0.00000
     23 C17         2.4552   -0.0330    0.0000 C.ar      1 <0>        0.00000
     24 S1          2.9401    0.6345    0.0000 S.3       1 <0>        0.00000
     25 C18         3.7247    0.3795    0.0000 C.ar      1 <0>        0.00000
     26 C19         4.4392    0.7920    0.0000 C.3       1 <0>        0.00000
     27 N4          5.1537    0.3795    0.0000 N.3       1 <0>        0.00000
     28 C20         5.8681    0.7920    0.0000 C.3       1 <0>        0.00000
     29 C21         5.1537   -0.4455    0.0000 C.3       1 <0>        0.00000
     30 C22         4.4392   -0.8580    0.0000 C.3       1 <0>        0.00000
     31 C23         3.7247   -0.4455    0.0000 C.ar      1 <0>        0.00000
     32 N5          2.9401   -0.7004    0.0000 N.ar      1 <0>        0.00000
     33 H1          0.5289    0.1667    0.0000 H         1 <0>        0.00000
     34 H2          0.8400   -0.3721    0.0000 H         1 <0>        0.00000
     35 H3          1.3847    4.6536    0.0000 H         1 <0>        0.00000
     36 H4          0.6702    4.2411    0.0000 H         1 <0>        0.00000
     37 H5          0.0571    2.8641    0.0000 H         1 <0>        0.00000
     38 H6          2.0992    3.4161    0.0000 H         1 <0>        0.00000
     39 H7          1.2132    2.1967    0.0000 H         1 <0>        0.00000
     40 H8          0.3927    0.6815    0.0000 H         1 <0>        0.00000
     41 H9         -0.8448   -0.0330    0.0000 H         1 <0>        0.00000
     42 H10        -0.8448   -0.0330    0.0000 H         1 <0>        0.00000
     43 H11        -1.2573   -0.7475    0.0000 H         1 <0>        0.00000
     44 H12        -1.2573   -0.7475    0.0000 H         1 <0>        0.00000
     45 H13        -0.8448   -1.4619    0.0000 H         1 <0>        0.00000
     46 H14        -0.8448   -1.4619    0.0000 H         1 <0>        0.00000
     47 H15        -0.0198   -1.4619    0.0000 H         1 <0>        0.00000
     48 H16        -0.0198   -1.4619    0.0000 H         1 <0>        0.00000
     49 H17         1.2177   -0.7475    0.0000 H         1 <0>        0.00000
     50 H18         4.4392    0.7920    0.0000 H         1 <0>        0.00000
     51 H19         4.4392    0.7920    0.0000 H         1 <0>        0.00000
     52 H20         5.8681    0.7920    0.0000 H         1 <0>        0.00000
     53 H21         5.8681    0.7920    0.0000 H         1 <0>        0.00000
     54 H22         5.8681    0.7920    0.0000 H         1 <0>        0.00000
     55 H23         5.1537   -0.4455    0.0000 H         1 <0>        0.00000
     56 H24         5.1537   -0.4455    0.0000 H         1 <0>        0.00000
     57 H25         4.4392   -0.8580    0.0000 H         1 <0>        0.00000
     58 H26         4.4392   -0.8580    0.0000 H         1 <0>        0.00000
@<TRIPOS>BOND
     1    1    2 1
     2    2    7 ar
     3    2    3 ar
     4    3    4 ar
     5    4    5 ar
     6    5    8 ar
     7    5    6 1
     8    6   10 1
     9    7    8 ar
    10    8    9 1
    11    9   10 2
    12   10   11 1
    13   11   12 2
    14   11   13 am
    15   13   14 1
    16   14   19 1
    17   14   15 1
    18   14   33 1
    19   15   16 1
    20   16   17 1
    21   17   18 1
    22   18   19 1
    23   19   20 1
    24   19   34 1
    25   20   21 am
    26   21   23 1
    27   21   22 2
    28   23   32 2
    29   23   24 1
    30   24   25 1
    31   25   26 1
    32   25   31 2
    33   26   27 1
    34   27   28 1
    35   27   29 1
    36   29   30 1
    37   30   31 1
    38   31   32 1
    39    3   35 1
    40    4   36 1
    41    6   37 1
    42    7   38 1
    43    9   39 1
    44   13   40 1
    45   15   41 1
    46   15   42 1
    47   16   43 1
    48   16   44 1
    49   17   45 1
    50   17   46 1
    51   18   47 1
    52   18   48 1
    53   20   49 1
    54   26   50 1
    55   26   51 1
    56   28   52 1
    57   28   53 1
    58   28   54 1
    59   29   55 1
    60   29   56 1
    61   30   57 1
    62   30   58 1
@<TRIPOS>SUBSTRUCTURE
     1 <0>         1 GROUP 0 A     ****
@<TRIPOS>MOLECULE
*****
   12    11     1     0     0
SMALL
NO_CHARGES

@<TRIPOS>ATOM
      1 N1          2.0625    0.7145    0.0000 N.3       1 <0>        0.00000
      2 C1          1.2375    0.7145    0.0000 C.3       1 <0>        0.00000
      3 C2          0.8250    1.4289    0.0000 C.1       1 <0>        0.00000
      4 C3          0.4125    2.1434    0.0000 C.1       1 <0>        0.00000
      5 C4          0.8250    0.0000    0.0000 C.2       1 <0>        0.00000
      6 O1          1.2375   -0.7145    0.0000 O.3       1 <0>        0.00000
      7 O2          0.0000    0.0000    0.0000 O.2       1 <0>        0.00000
      8 H1          2.0625    0.7145    0.0000 H         1 <0>        0.00000
      9 H2          2.0625    0.7145    0.0000 H         1 <0>        0.00000
     10 H3          1.2375    0.7145    0.0000 H         1 <0>        0.00000
     11 H4          0.4125    2.1434    0.0000 H         1 <0>        0.00000
     12 H5          1.2375   -0.7145    0.0000 H         1 <0>        0.00000
@<TRIPOS>BOND
     1    1    2 1
     2    2    3 1
     3    3    4 3
     4    2    5 1
     5    5    6 1
     6    5    7 2
     7    1    8 1
     8    1    9 1
     9    2   10 1
    10    4   11 1
    11    6   12 1
@<TRIPOS>SUBSTRUCTURE
     1 <0>         1 GROUP 0 A     ****
@<TRIPOS>MOLECULE
*****
   76    80     1     0     0
SMALL
NO_CHARGES

@<TRIPOS>ATOM
      1 C1         -9.0788   -1.1969    0.0000 C.ar      1 <0>        0.00000
      2 C2         -9.3338   -1.9816    0.0000 C.ar      1 <0>        0.00000
      3 C3         -8.2719   -1.0254    0.0000 C.ar      1 <0>        0.00000
      4 C4         -7.9748   -2.4231    0.0000 C.ar      1 <0>        0.00000
      5 C5         -4.8316   -1.9421    0.0000 C.3       1 <0>        0.00000
      6 C6         -0.5683   -1.4940    0.0000 C.3       1 <0>        0.00000
      7 C7          3.3523    1.1104    0.0000 C.ar      1 <0>        0.00000
      8 C8          0.6538    1.5229    0.0000 C.ar      1 <0>        0.00000
      9 C9         -8.7817   -2.5947    0.0000 C.ar      1 <0>        0.00000
     10 C10        -5.5853   -1.6065    0.0000 C.3       1 <0>        0.00000
     11 C11         0.0992   -1.0091    0.0000 C.3       1 <0>        0.00000
     12 C12         1.9233    1.9354    0.0000 C.ar      1 <0>        0.00000
     13 C13        -5.7568   -0.7995    0.0000 C.3       1 <0>        0.00000
     14 C14         0.8838   -1.2640    0.0000 C.3       1 <0>        0.00000
     15 C15        -6.5773   -0.7133    0.0000 C.3       1 <0>        0.00000
     16 C16         1.3687   -0.5966    0.0000 C.3       1 <0>        0.00000
     17 C17         2.6378    2.3479    0.0000 C.ar      1 <0>        0.00000
     18 C18        -9.0367   -3.3793    0.0000 C.2       1 <0>        0.00000
     19 C19         1.9233    1.1104    0.0000 C.ar      1 <0>        0.00000
     20 C20        -6.9129   -1.4670    0.0000 C.3       1 <0>        0.00000
     21 C21         0.8838    0.0709    0.0000 C.3       1 <0>        0.00000
     22 N1          2.6378    3.1729    0.0000 N.pl3     1 <0>        0.00000
     23 N2         -9.8437   -3.5508    0.0000 N.2       1 <0>        0.00000
     24 N3          3.3523    1.9354    0.0000 N.ar      1 <0>        0.00000
     25 N4          2.6378    0.6979    0.0000 N.ar      1 <0>        0.00000
     26 N5          1.1387    2.1904    0.0000 N.ar      1 <0>        0.00000
     27 N6         -7.7198   -1.6385    0.0000 N.ar      1 <0>        0.00000
     28 N7          1.1387    0.8555    0.0000 N.pl3     1 <0>        0.00000
     29 O1         -5.2048   -0.1865    0.0000 O.3       1 <0>        0.00000
     30 O2          1.1387   -2.0486    0.0000 O.3       1 <0>        0.00000
     31 O3         -6.9898    0.0012    0.0000 O.3       1 <0>        0.00000
     32 O4          1.8917   -1.7235    0.0000 O.2       1 <0>        0.00000
     33 O5          3.3207   -0.8985    0.0000 O.3       1 <0>        0.00000
     34 O6          3.0187   -2.0255    0.0000 O.3       1 <0>        0.00000
     35 O7         -3.0749   -1.0390    0.0000 O.2       1 <0>        0.00000
     36 O8         -3.7461   -2.5464    0.0000 O.3       1 <0>        0.00000
     37 O9         -2.4743   -0.9759    0.0000 O.2       1 <0>        0.00000
     38 O10        -1.5045   -2.3108    0.0000 O.3       1 <0>        0.00000
     39 O11        -4.1642   -1.4572    0.0000 O.3       1 <0>        0.00000
     40 O12        -1.3220   -1.1584    0.0000 O.3       1 <0>        0.00000
     41 O13        -6.2998   -2.0190    0.0000 O.3       1 <0>        0.00000
     42 O14         0.0992   -0.1841    0.0000 O.3       1 <0>        0.00000
     43 O15         2.1937   -0.5966    0.0000 O.3       1 <0>        0.00000
     44 O16        -2.6568   -2.1283    0.0000 O.3       1 <0>        0.00000
     45 P1          2.6062   -1.3110    0.0000 P.3       1 <0>        0.00000
     46 P2         -3.4105   -1.7927    0.0000 P.3       1 <0>        0.00000
     47 P3         -1.9894   -1.6433    0.0000 P.3       1 <0>        0.00000
     48 S1         -8.4846   -3.9924    0.0000 S.3       1 <0>        0.00000
     49 H1         -5.1604   -0.8994    0.0000 H         1 <0>        0.00000
     50 H2          0.4991   -1.7306    0.0000 H         1 <0>        0.00000
     51 H3         -4.9350   -0.7276    0.0000 H         1 <0>        0.00000
     52 H4          0.5351   -2.0117    0.0000 H         1 <0>        0.00000
     53 H5         -6.1280   -0.0214    0.0000 H         1 <0>        0.00000
     54 H6          1.7432   -1.3316    0.0000 H         1 <0>        0.00000
     55 H7         -7.4321   -0.8258    0.0000 H         1 <0>        0.00000
     56 H8          1.6986    0.1999    0.0000 H         1 <0>        0.00000
     57 H9         -9.0788   -1.1969    0.0000 H         1 <0>        0.00000
     58 H10        -9.3338   -1.9816    0.0000 H         1 <0>        0.00000
     59 H11        -8.2719   -1.0254    0.0000 H         1 <0>        0.00000
     60 H12        -7.9748   -2.4231    0.0000 H         1 <0>        0.00000
     61 H13        -4.8316   -1.9421    0.0000 H         1 <0>        0.00000
     62 H14        -4.8316   -1.9421    0.0000 H         1 <0>        0.00000
     63 H15        -0.5683   -1.4940    0.0000 H         1 <0>        0.00000
     64 H16        -0.5683   -1.4940    0.0000 H         1 <0>        0.00000
     65 H17         3.3523    1.1104    0.0000 H         1 <0>        0.00000
     66 H18         0.6538    1.5229    0.0000 H         1 <0>        0.00000
     67 H19         2.6378    3.1729    0.0000 H         1 <0>        0.00000
     68 H20         2.6378    3.1729    0.0000 H         1 <0>        0.00000
     69 H21        -9.8437   -3.5508    0.0000 H         1 <0>        0.00000
     70 H22        -5.2048   -0.1865    0.0000 H         1 <0>        0.00000
     71 H23         1.1387   -2.0486    0.0000 H         1 <0>        0.00000
     72 H24        -6.9898    0.0012    0.0000 H         1 <0>        0.00000
     73 H25         3.3207   -0.8985    0.0000 H         1 <0>        0.00000
     74 H26         3.0187   -2.0255    0.0000 H         1 <0>        0.00000
     75 H27        -3.7461   -2.5464    0.0000 H         1 <0>        0.00000
     76 H28        -1.5045   -2.3108    0.0000 H         1 <0>        0.00000
@<TRIPOS>BOND
     1    1    2 ar
     2    1    3 ar
     3    2    9 ar
     4    4    9 ar
     5    5   10 1
     6    6   11 1
     7   10   13 1
     8   11   14 1
     9   13   15 1
    10   14   16 1
    11   12   17 ar
    12    9   18 1
    13   12   19 ar
    14   15   20 1
    15   16   21 1
    16   17   22 1
    17   18   23 2
    18    7   24 ar
    19   17   24 ar
    20    7   25 ar
    21   19   25 ar
    22    8   26 2
    23   12   26 1
    24    3   27 ar
    25    4   27 ar
    26   20   27 1
    27    8   28 1
    28   19   28 1
    29   21   28 1
    30   13   29 1
    31   14   30 1
    32   15   31 1
    33    5   39 1
    34    6   40 1
    35   10   41 1
    36   20   41 1
    37   11   42 1
    38   21   42 1
    39   16   43 1
    40   32   45 2
    41   33   45 1
    42   34   45 1
    43   43   45 1
    44   35   46 2
    45   36   46 1
    46   39   46 1
    47   44   46 1
    48   37   47 2
    49   38   47 1
    50   40   47 1
    51   44   47 1
    52   18   48 1
    53   10   49 1
    54   11   50 1
    55   13   51 1
    56   14   52 1
    57   15   53 1
    58   16   54 1
    59   20   55 1
    60   21   56 1
    61    1   57 1
    62    2   58 1
    63    3   59 1
    64    4   60 1
    65    5   61 1
    66    5   62 1
    67    6   63 1
    68    6   64 1
    69    7   65 1
    70    8   66 1
    71   22   67 1
    72   22   68 1
    73   23   69 1
    74   29   70 1
    75   30   71 1
    76   31   72 1
    77   33   73 1
    78   34   74 1
    79   36   75 1
    80   38   76 1
@<TRIPOS>SUBSTRUCTURE
     1 <0>         1 GROUP 0 A     ****
@<TRIPOS>MOLECULE
R88
   47    49     1     0     0
SMALL
NO_CHARGES

@<TRIPOS>ATOM
      1 C1          1.3226    3.5451    0.0000 C.ar      1 <0>        0.00000
      2 C2          0.6081    3.1326    0.0000 C.2       1 <0>        0.00000
      3 O1         -0.1064    3.5451    0.0000 O.2       1 <0>        0.00000
      4 C3          0.6081    2.3076    0.0000 C.ar      1 <0>        0.00000
      5 C4          1.3226    1.8951    0.0000 C.ar      1 <0>        0.00000
      6 C5          1.3226    1.0701    0.0000 C.ar      1 <0>        0.00000
      7 C6          0.6081    0.6576    0.0000 C.ar      1 <0>        0.00000
      8 C7         -0.1064   -0.5799    0.0000 C.3       1 <0>        0.00000
      9 C8         -0.1064   -1.4049    0.0000 C.2       1 <0>        0.00000
     10 C9         -0.8208   -1.8174    0.0000 C.2       1 <0>        0.00000
     11 C10        -0.8208   -2.6424    0.0000 C.3       1 <0>        0.00000
     12 N1         -1.5353   -3.0549    0.0000 N.3       1 <0>        0.00000
     13 C11        -2.2498   -2.6424    0.0000 C.3       1 <0>        0.00000
     14 C12        -1.5353   -3.8799    0.0000 C.3       1 <0>        0.00000
     15 C13        -1.1228   -4.5944    0.0000 C.3       1 <0>        0.00000
     16 C14        -0.1064    1.0701    0.0000 C.ar      1 <0>        0.00000
     17 C15        -0.1064    1.8951    0.0000 C.ar      1 <0>        0.00000
     18 C16         1.3226    4.3701    0.0000 C.ar      1 <0>        0.00000
     19 C17         2.0370    4.7826    0.0000 C.ar      1 <0>        0.00000
     20 C18         2.7515    4.3701    0.0000 C.ar      1 <0>        0.00000
     21 O2          0.6081   -0.1674    0.0000 O.3       1 <0>        0.00000
     22 C19        -1.9478   -4.5944    0.0000 C.3       1 <0>        0.00000
     23 Br1         3.4660    4.7826    0.0000 Br        1 <0>        0.00000
     24 C20         2.7515    3.5451    0.0000 C.ar      1 <0>        0.00000
     25 C21         2.0370    3.1326    0.0000 C.ar      1 <0>        0.00000
     26 H1          1.3226    1.8951    0.0000 H         1 <0>        0.00000
     27 H2          1.3226    1.0701    0.0000 H         1 <0>        0.00000
     28 H3         -0.1064   -0.5799    0.0000 H         1 <0>        0.00000
     29 H4         -0.1064   -0.5799    0.0000 H         1 <0>        0.00000
     30 H5         -0.1064   -1.4049    0.0000 H         1 <0>        0.00000
     31 H6         -0.8208   -1.8174    0.0000 H         1 <0>        0.00000
     32 H7         -0.8208   -2.6424    0.0000 H         1 <0>        0.00000
     33 H8         -0.8208   -2.6424    0.0000 H         1 <0>        0.00000
     34 H9         -2.2498   -2.6424    0.0000 H         1 <0>        0.00000
     35 H10        -2.2498   -2.6424    0.0000 H         1 <0>        0.00000
     36 H11        -2.2498   -2.6424    0.0000 H         1 <0>        0.00000
     37 H12        -1.5353   -3.8799    0.0000 H         1 <0>        0.00000
     38 H13        -1.1228   -4.5944    0.0000 H         1 <0>        0.00000
     39 H14        -1.1228   -4.5944    0.0000 H         1 <0>        0.00000
     40 H15        -0.1064    1.0701    0.0000 H         1 <0>        0.00000
     41 H16        -0.1064    1.8951    0.0000 H         1 <0>        0.00000
     42 H17         1.3226    4.3701    0.0000 H         1 <0>        0.00000
     43 H18         2.0370    4.7826    0.0000 H         1 <0>        0.00000
     44 H19        -1.9478   -4.5944    0.0000 H         1 <0>        0.00000
     45 H20        -1.9478   -4.5944    0.0000 H         1 <0>        0.00000
     46 H21         2.7515    3.5451    0.0000 H         1 <0>        0.00000
     47 H22         2.0370    3.1326    0.0000 H         1 <0>        0.00000
@<TRIPOS>BOND
     1    1    2 1
     2    1   18 ar
     3    1   25 ar
     4    2    3 2
     5    2    4 1
     6    4    5 ar
     7    4   17 ar
     8    5    6 ar
     9    6    7 ar
    10    7   16 ar
    11    7   21 1
    12    8    9 1
    13    8   21 1
    14    9   10 2
    15   10   11 1
    16   11   12 1
    17   12   13 1
    18   12   14 1
    19   14   15 1
    20   14   22 1
    21   15   22 1
    22   16   17 ar
    23   18   19 ar
    24   19   20 ar
    25   20   23 1
    26   20   24 ar
    27   24   25 ar
    28    5   26 1
    29    6   27 1
    30    8   28 1
    31    8   29 1
    32    9   30 1
    33   10   31 1
    34   11   32 1
    35   11   33 1
    36   13   34 1
    37   13   35 1
    38   13   36 1
    39   14   37 1
    40   15   38 1
    41   15   39 1
    42   16   40 1
    43   17   41 1
    44   18   42 1
    45   19   43 1
    46   22   44 1
    47   22   45 1
    48   24   46 1
    49   25   47 1
@<TRIPOS>SUBSTRUCTURE
     1 <0>         1 GROUP 0 A     ****
@<TRIPOS>MOLECULE
*****
   15    14     1     0     0
SMALL
NO_CHARGES

@<TRIPOS>ATOM
      1 N1          1.9520    1.9520    0.0000 N.3       1 <0>        0.00000
      2 C1          1.9520    1.1270    0.0000 C.3       1 <0>        0.00000
      3 C2          1.2375    0.7145    0.0000 C.3       1 <0>        0.00000
      4 S1          0.5230    1.1270    0.0000 S.o2      1 <0>        0.00000
      5 O1         -0.1914    0.7145    0.0000 O.2       1 <0>        0.00000
      6 O2          0.5230    1.9520    0.0000 O.2       1 <0>        0.00000
      7 C3          2.6664    0.7145    0.0000 C.2       1 <0>        0.00000
      8 O3          3.3809    1.1270    0.0000 O.3       1 <0>        0.00000
      9 O4          2.6664   -0.1105    0.0000 O.2       1 <0>        0.00000
     10 H1          1.9520    1.9520    0.0000 H         1 <0>        0.00000
     11 H2          1.9520    1.9520    0.0000 H         1 <0>        0.00000
     12 H3          1.9520    1.1270    0.0000 H         1 <0>        0.00000
     13 H4          1.2375    0.7145    0.0000 H         1 <0>        0.00000
     14 H5          1.2375    0.7145    0.0000 H         1 <0>        0.00000
     15 H6          3.3809    1.1270    0.0000 H         1 <0>        0.00000
@<TRIPOS>BOND
     1    1    2 1
     2    2    3 1
     3    3    4 1
     4    4    5 2
     5    4    6 2
     6    2    7 1
     7    7    8 1
     8    7    9 2
     9    1   10 1
    10    1   11 1
    11    2   12 1
    12    3   13 1
    13    3   14 1
    14    8   15 1
@<TRIPOS>SUBSTRUCTURE
     1 <0>         1 GROUP 0 A     ****
@<TRIPOS>MOLECULE
*****
   53    56     1     0     0
SMALL
NO_CHARGES

@<TRIPOS>ATOM
      1 O1          7.7832    1.5550    0.0000 O.3       1 <0>        0.00000
      2 O2          2.0939   -1.5843    0.0000 O.3       1 <0>        0.00000
      3 N1          2.8068   -1.9996    0.0000 N.2       1 <0>        0.00000
      4 C1          7.2561    0.5186    0.0000 C.3       1 <0>        0.00000
      5 C2          7.2561   -0.3064    0.0000 C.3       1 <0>        0.00000
      6 C3          6.5417   -0.7189    0.0000 C.3       1 <0>        0.00000
      7 C4          5.8272   -0.3064    0.0000 C.3       1 <0>        0.00000
      8 C5          8.0367    0.7700    0.0000 C.3       1 <0>        0.00000
      9 C6          6.5417    0.9311    0.0000 C.3       1 <0>        0.00000
     10 C7          8.0367   -0.5579    0.0000 C.3       1 <0>        0.00000
     11 C8          5.8272    0.5186    0.0000 C.3       1 <0>        0.00000
     12 C9          5.0765   -0.7246    0.0000 C.3       1 <0>        0.00000
     13 C10         8.5182    0.1061    0.0000 C.3       1 <0>        0.00000
     14 C11         6.5549   -1.5782    0.0000 C.3       1 <0>        0.00000
     15 C12         7.2561    1.3436    0.0000 C.3       1 <0>        0.00000
     16 C13         5.8140   -2.0136    0.0000 C.3       1 <0>        0.00000
     17 C14         5.0698   -1.5839    0.0000 C.2       1 <0>        0.00000
     18 C15         4.3118   -0.2592    0.0000 C.3       1 <0>        0.00000
     19 C16         6.5417    1.7561    0.0000 C.3       1 <0>        0.00000
     20 C17         8.7051    1.2538    0.0000 C.1       1 <0>        0.00000
     21 C18         3.5298   -0.6948    0.0000 C.3       1 <0>        0.00000
     22 C19         4.2981   -2.0374    0.0000 C.2       1 <0>        0.00000
     23 C20         3.5229   -1.5899    0.0000 C.2       1 <0>        0.00000
     24 C21         9.3733    1.7375    0.0000 C.1       1 <0>        0.00000
     25 H1          7.3260   -0.9628    0.0000 H         1 <0>        0.00000
     26 H2          7.1158   -1.0445    0.0000 H         1 <0>        0.00000
     27 H3          6.3988    0.0236    0.0000 H         1 <0>        0.00000
     28 H4          5.0892   -0.0647    0.0000 H         1 <0>        0.00000
     29 H5          7.7832    1.5550    0.0000 H         1 <0>        0.00000
     30 H6          2.0939   -1.5843    0.0000 H         1 <0>        0.00000
     31 H7          6.5417    0.9311    0.0000 H         1 <0>        0.00000
     32 H8          6.5417    0.9311    0.0000 H         1 <0>        0.00000
     33 H9          8.0367   -0.5579    0.0000 H         1 <0>        0.00000
     34 H10         8.0367   -0.5579    0.0000 H         1 <0>        0.00000
     35 H11         5.8272    0.5186    0.0000 H         1 <0>        0.00000
     36 H12         5.8272    0.5186    0.0000 H         1 <0>        0.00000
     37 H13         8.5182    0.1061    0.0000 H         1 <0>        0.00000
     38 H14         8.5182    0.1061    0.0000 H         1 <0>        0.00000
     39 H15         6.5549   -1.5782    0.0000 H         1 <0>        0.00000
     40 H16         6.5549   -1.5782    0.0000 H         1 <0>        0.00000
     41 H17         7.2561    1.3436    0.0000 H         1 <0>        0.00000
     42 H18         7.2561    1.3436    0.0000 H         1 <0>        0.00000
     43 H19         5.8140   -2.0136    0.0000 H         1 <0>        0.00000
     44 H20         5.8140   -2.0136    0.0000 H         1 <0>        0.00000
     45 H21         4.3118   -0.2592    0.0000 H         1 <0>        0.00000
     46 H22         4.3118   -0.2592    0.0000 H         1 <0>        0.00000
     47 H23         6.5417    1.7561    0.0000 H         1 <0>        0.00000
     48 H24         6.5417    1.7561    0.0000 H         1 <0>        0.00000
     49 H25         6.5417    1.7561    0.0000 H         1 <0>        0.00000
     50 H26         3.5298   -0.6948    0.0000 H         1 <0>        0.00000
     51 H27         3.5298   -0.6948    0.0000 H         1 <0>        0.00000
     52 H28         4.2981   -2.0374    0.0000 H         1 <0>        0.00000
     53 H29         9.3733    1.7375    0.0000 H         1 <0>        0.00000
@<TRIPOS>BOND
     1    1    8 1
     2    2    3 1
     3    3   23 2
     4    4    5 1
     5    4    8 1
     6    4    9 1
     7    4   15 1
     8    5    6 1
     9    5   10 1
    10    5   25 1
    11    6    7 1
    12    6   14 1
    13    6   26 1
    14    7   11 1
    15    7   12 1
    16    7   27 1
    17    8   13 1
    18    8   20 1
    19    9   11 1
    20   10   13 1
    21   12   17 1
    22   12   18 1
    23   12   28 1
    24   14   16 1
    25   15   19 1
    26   16   17 1
    27   17   22 2
    28   18   21 1
    29   20   24 3
    30   21   23 1
    31   22   23 1
    32    1   29 1
    33    2   30 1
    34    9   31 1
    35    9   32 1
    36   10   33 1
    37   10   34 1
    38   11   35 1
    39   11   36 1
    40   13   37 1
    41   13   38 1
    42   14   39 1
    43   14   40 1
    44   15   41 1
    45   15   42 1
    46   16   43 1
    47   16   44 1
    48   18   45 1
    49   18   46 1
    50   19   47 1
    51   19   48 1
    52   19   49 1
    53   21   50 1
    54   21   51 1
    55   22   52 1
    56   24   53 1
@<TRIPOS>SUBSTRUCTURE
     1 <0>         1 GROUP 0 A     ****
@<TRIPOS>MOLECULE
APJ
   41    45     1     0     0
SMALL
NO_CHARGES

@<TRIPOS>ATOM
      1 N1          0.0240    0.2612    0.0000 N.ar      1 <0>        0.00000
      2 N2         -1.4050    0.2612    0.0000 N.ar      1 <0>        0.00000
      3 N3          0.7384    1.4987    0.0000 N.pl3     1 <0>        0.00000
      4 N4          1.5391    0.2657    0.0000 N.pl3     1 <0>        0.00000
      5 N5          2.3461    0.0942    0.0000 N.ar      1 <0>        0.00000
      6 N6         -0.6905   -0.9763    0.0000 N.pl3     1 <0>        0.00000
      7 N7         -3.6185   -2.4687    0.0000 N.pl3     1 <0>        0.00000
      8 N8         -3.6185   -1.1339    0.0000 N.ar      1 <0>        0.00000
      9 C1         -0.6905   -0.1513    0.0000 C.ar      1 <0>        0.00000
     10 C2          0.0240    1.0862    0.0000 C.ar      1 <0>        0.00000
     11 C3         -0.6905    1.4987    0.0000 C.ar      1 <0>        0.00000
     12 C4         -1.4050    1.0862    0.0000 C.ar      1 <0>        0.00000
     13 C5          1.4529    1.0862    0.0000 C.ar      1 <0>        0.00000
     14 C6          2.7586    0.8087    0.0000 C.ar      1 <0>        0.00000
     15 C7          2.2066    1.4218    0.0000 C.ar      1 <0>        0.00000
     16 C8          3.5791    0.8949    0.0000 C.3       1 <0>        0.00000
     17 C9          4.3328    0.5593    0.0000 C.3       1 <0>        0.00000
     18 C10         4.2465    1.3798    0.0000 C.3       1 <0>        0.00000
     19 C11        -1.4050   -1.3888    0.0000 C.ar      1 <0>        0.00000
     20 C12        -2.1195   -0.9763    0.0000 C.ar      1 <0>        0.00000
     21 C13        -2.8339   -1.3888    0.0000 C.ar      1 <0>        0.00000
     22 C14        -2.8339   -2.2138    0.0000 C.ar      1 <0>        0.00000
     23 C15        -2.1195   -2.6263    0.0000 C.ar      1 <0>        0.00000
     24 C16        -1.4050   -2.2138    0.0000 C.ar      1 <0>        0.00000
     25 C17        -4.1035   -1.8013    0.0000 C.ar      1 <0>        0.00000
     26 H1          0.7384    1.4987    0.0000 H         1 <0>        0.00000
     27 H2          1.5391    0.2657    0.0000 H         1 <0>        0.00000
     28 H3         -0.6905   -0.9763    0.0000 H         1 <0>        0.00000
     29 H4         -3.6185   -2.4687    0.0000 H         1 <0>        0.00000
     30 H5         -0.6905    1.4987    0.0000 H         1 <0>        0.00000
     31 H6         -1.4050    1.0862    0.0000 H         1 <0>        0.00000
     32 H7          2.2066    1.4218    0.0000 H         1 <0>        0.00000
     33 H8          3.5791    0.8949    0.0000 H         1 <0>        0.00000
     34 H9          4.3328    0.5593    0.0000 H         1 <0>        0.00000
     35 H10         4.3328    0.5593    0.0000 H         1 <0>        0.00000
     36 H11         4.2465    1.3798    0.0000 H         1 <0>        0.00000
     37 H12         4.2465    1.3798    0.0000 H         1 <0>        0.00000
     38 H13        -2.1195   -0.9763    0.0000 H         1 <0>        0.00000
     39 H14        -2.1195   -2.6263    0.0000 H         1 <0>        0.00000
     40 H15        -1.4050   -2.2138    0.0000 H         1 <0>        0.00000
     41 H16        -4.1035   -1.8013    0.0000 H         1 <0>        0.00000
@<TRIPOS>BOND
     1    1    9 ar
     2    1   10 ar
     3    2   12 ar
     4    3   10 1
     5    4   13 1
     6    4    5 1
     7    6    9 1
     8    7   22 1
     9    8   21 1
    10    2    9 ar
    11   10   11 ar
    12   11   12 ar
    13    3   13 1
    14    5   14 2
    15   14   15 1
    16   13   15 2
    17   14   16 1
    18   16   17 1
    19   16   18 1
    20   17   18 1
    21    6   19 1
    22   19   20 ar
    23   20   21 ar
    24   21   22 ar
    25   22   23 ar
    26   23   24 ar
    27   19   24 ar
    28    7   25 1
    29    8   25 2
    30    3   26 1
    31    4   27 1
    32    6   28 1
    33    7   29 1
    34   11   30 1
    35   12   31 1
    36   15   32 1
    37   16   33 1
    38   17   34 1
    39   17   35 1
    40   18   36 1
    41   18   37 1
    42   20   38 1
    43   23   39 1
    44   24   40 1
    45   25   41 1
@<TRIPOS>SUBSTRUCTURE
     1 <0>         1 GROUP 0 A     ****
@<TRIPOS>MOLECULE
GAJ
   33    36     1     0     0
SMALL
NO_CHARGES

@<TRIPOS>ATOM
      1 O1         -0.7773   -1.2944    0.0000 O.2       1 <0>        0.00000
      2 S1         -1.1898   -0.5799    0.0000 S.o2      1 <0>        0.00000
      3 O2         -1.6023    0.1346    0.0000 O.2       1 <0>        0.00000
      4 N1         -1.9043   -0.9924    0.0000 N.2       1 <0>        0.00000
      5 C1         -2.6187   -0.5799    0.0000 C.ar      1 <0>        0.00000
      6 N2         -3.3724   -0.9154    0.0000 N.pl3     1 <0>        0.00000
      7 N3         -3.9244   -0.3024    0.0000 N.ar      1 <0>        0.00000
      8 N4         -3.5119    0.4121    0.0000 N.ar      1 <0>        0.00000
      9 N5         -2.7050    0.2406    0.0000 N.pl3     1 <0>        0.00000
     10 C2         -0.4753   -0.1674    0.0000 C.ar      1 <0>        0.00000
     11 C3          0.2392   -0.5799    0.0000 C.ar      1 <0>        0.00000
     12 C4         -0.4753    0.6576    0.0000 C.ar      1 <0>        0.00000
     13 C5          0.2392    1.0701    0.0000 C.ar      1 <0>        0.00000
     14 C6          0.9536    0.6576    0.0000 C.ar      1 <0>        0.00000
     15 O3          1.6681    1.0701    0.0000 O.3       1 <0>        0.00000
     16 C7          2.3826    0.6576    0.0000 C.ar      1 <0>        0.00000
     17 C8          3.0970    1.0701    0.0000 C.ar      1 <0>        0.00000
     18 C9          3.8115    0.6576    0.0000 C.ar      1 <0>        0.00000
     19 C10         3.8115   -0.1674    0.0000 C.ar      1 <0>        0.00000
     20 C11         3.0970   -0.5799    0.0000 C.ar      1 <0>        0.00000
     21 C12         2.3826   -0.1674    0.0000 C.ar      1 <0>        0.00000
     22 C13         1.6681   -0.5799    0.0000 C.ar      1 <0>        0.00000
     23 C14         0.9536   -0.1674    0.0000 C.ar      1 <0>        0.00000
     24 O4          1.6681   -1.4049    0.0000 O.2       1 <0>        0.00000
     25 H1         -3.3724   -0.9154    0.0000 H         1 <0>        0.00000
     26 H2         -2.7050    0.2406    0.0000 H         1 <0>        0.00000
     27 H3          0.2392   -0.5799    0.0000 H         1 <0>        0.00000
     28 H4         -0.4753    0.6576    0.0000 H         1 <0>        0.00000
     29 H5          0.2392    1.0701    0.0000 H         1 <0>        0.00000
     30 H6          3.0970    1.0701    0.0000 H         1 <0>        0.00000
     31 H7          3.8115    0.6576    0.0000 H         1 <0>        0.00000
     32 H8          3.8115   -0.1674    0.0000 H         1 <0>        0.00000
     33 H9          3.0970   -0.5799    0.0000 H         1 <0>        0.00000
@<TRIPOS>BOND
     1    1    2 2
     2    2    3 2
     3    2    4 1
     4    2   10 1
     5    4    5 2
     6    5    6 1
     7    5    9 1
     8    6    7 1
     9    7    8 2
    10    8    9 1
    11   10   11 ar
    12   10   12 ar
    13   11   23 ar
    14   12   13 ar
    15   13   14 ar
    16   14   15 1
    17   14   23 ar
    18   15   16 1
    19   16   17 ar
    20   16   21 ar
    21   17   18 ar
    22   18   19 ar
    23   19   20 ar
    24   20   21 ar
    25   21   22 1
    26   22   23 1
    27   22   24 2
    28    6   25 1
    29    9   26 1
    30   11   27 1
    31   12   28 1
    32   13   29 1
    33   17   30 1
    34   18   31 1
    35   19   32 1
    36   20   33 1
@<TRIPOS>SUBSTRUCTURE
     1 <0>         1 GROUP 0 A     ****
@<TRIPOS>MOLECULE
*****
   28    29     1     0     0
SMALL
NO_CHARGES

@<TRIPOS>ATOM
      1 C1          0.0000    3.3000    0.0000 C.ar      1 <0>        0.00000
      2 C2          6.4302    1.2375    0.0000 C.ar      1 <0>        0.00000
      3 C3          0.0000    2.4750    0.0000 C.ar      1 <0>        0.00000
      4 C4          0.7145    3.7125    0.0000 C.ar      1 <0>        0.00000
      5 C5          6.4302    2.0625    0.0000 C.ar      1 <0>        0.00000
      6 C6          5.7158    0.8250    0.0000 C.ar      1 <0>        0.00000
      7 C7          0.7145    2.0625    0.0000 C.ar      1 <0>        0.00000
      8 C8          1.4289    3.3000    0.0000 C.ar      1 <0>        0.00000
      9 C9          5.7158    2.4750    0.0000 C.ar      1 <0>        0.00000
     10 C10         5.0013    1.2375    0.0000 C.ar      1 <0>        0.00000
     11 C11         1.4289    2.4750    0.0000 C.ar      1 <0>        0.00000
     12 C12         5.0013    2.0625    0.0000 C.ar      1 <0>        0.00000
     13 C13         2.1434    2.0625    0.0000 C.2       1 <0>        0.00000
     14 C14         4.2868    2.4750    0.0000 C.2       1 <0>        0.00000
     15 O1          2.1434    1.2375    0.0000 O.2       1 <0>        0.00000
     16 O2          4.2868    3.3000    0.0000 O.2       1 <0>        0.00000
     17 O3          2.8579    2.4750    0.0000 O.3       1 <0>        0.00000
     18 O4          3.5724    2.0625    0.0000 O.3       1 <0>        0.00000
     19 H1          0.0000    3.3000    0.0000 H         1 <0>        0.00000
     20 H2          6.4302    1.2375    0.0000 H         1 <0>        0.00000
     21 H3          0.0000    2.4750    0.0000 H         1 <0>        0.00000
     22 H4          0.7145    3.7125    0.0000 H         1 <0>        0.00000
     23 H5          6.4302    2.0625    0.0000 H         1 <0>        0.00000
     24 H6          5.7158    0.8250    0.0000 H         1 <0>        0.00000
     25 H7          0.7145    2.0625    0.0000 H         1 <0>        0.00000
     26 H8          1.4289    3.3000    0.0000 H         1 <0>        0.00000
     27 H9          5.7158    2.4750    0.0000 H         1 <0>        0.00000
     28 H10         5.0013    1.2375    0.0000 H         1 <0>        0.00000
@<TRIPOS>BOND
     1    1    3 ar
     2    1    4 ar
     3    2    5 ar
     4    2    6 ar
     5    3    7 ar
     6    4    8 ar
     7    5    9 ar
     8    6   10 ar
     9    7   11 ar
    10    8   11 ar
    11    9   12 ar
    12   10   12 ar
    13   11   13 1
    14   12   14 1
    15   13   15 2
    16   14   16 2
    17   13   17 1
    18   14   18 1
    19   17   18 1
    20    1   19 1
    21    2   20 1
    22    3   21 1
    23    4   22 1
    24    5   23 1
    25    6   24 1
    26    7   25 1
    27    8   26 1
    28    9   27 1
    29   10   28 1
@<TRIPOS>SUBSTRUCTURE
     1 <0>         1 GROUP 0 A     ****
@<TRIPOS>MOLECULE
1626
   25    25     1     0     0
SMALL
NO_CHARGES

@<TRIPOS>ATOM
      1 N1          3.0791    0.4909    0.0000 N.3       1 <0>        0.00000
      2 C1          2.3645    0.0784    0.0000 C.3       1 <0>        0.00000
      3 C2          2.3645   -0.7466    0.0000 C.ar      1 <0>        0.00000
      4 C3          3.0791    1.3159    0.0000 C.3       1 <0>        0.00000
      5 C4          3.7935    0.0784    0.0000 C.3       1 <0>        0.00000
      6 C5          3.0791   -1.1592    0.0000 C.ar      1 <0>        0.00000
      7 C6          1.6500   -1.1592    0.0000 C.ar      1 <0>        0.00000
      8 C7          3.0791   -1.9842    0.0000 C.ar      1 <0>        0.00000
      9 C8          1.6500   -1.9842    0.0000 C.ar      1 <0>        0.00000
     10 C9          2.3645   -2.3967    0.0000 C.ar      1 <0>        0.00000
     11 C10         3.7935    1.7284    0.0000 C.1       1 <0>        0.00000
     12 C11         4.5080    2.1409    0.0000 C.1       1 <0>        0.00000
     13 H1          2.3645    0.0784    0.0000 H         1 <0>        0.00000
     14 H2          2.3645    0.0784    0.0000 H         1 <0>        0.00000
     15 H3          3.0791    1.3159    0.0000 H         1 <0>        0.00000
     16 H4          3.0791    1.3159    0.0000 H         1 <0>        0.00000
     17 H5          3.7935    0.0784    0.0000 H         1 <0>        0.00000
     18 H6          3.7935    0.0784    0.0000 H         1 <0>        0.00000
     19 H7          3.7935    0.0784    0.0000 H         1 <0>        0.00000
     20 H8          3.0791   -1.1592    0.0000 H         1 <0>        0.00000
     21 H9          1.6500   -1.1592    0.0000 H         1 <0>        0.00000
     22 H10         3.0791   -1.9842    0.0000 H         1 <0>        0.00000
     23 H11         1.6500   -1.9842    0.0000 H         1 <0>        0.00000
     24 H12         2.3645   -2.3967    0.0000 H         1 <0>        0.00000
     25 H13         4.5080    2.1409    0.0000 H         1 <0>        0.00000
@<TRIPOS>BOND
     1    1    2 1
     2    1    4 1
     3    1    5 1
     4    2    3 1
     5    3    6 ar
     6    3    7 ar
     7    4   11 1
     8    6    8 ar
     9    7    9 ar
    10    8   10 ar
    11    9   10 ar
    12   11   12 3
    13    2   13 1
    14    2   14 1
    15    4   15 1
    16    4   16 1
    17    5   17 1
    18    5   18 1
    19    5   19 1
    20    6   20 1
    21    7   21 1
    22    8   22 1
    23    9   23 1
    24   10   24 1
    25   12   25 1
@<TRIPOS>SUBSTRUCTURE
     1 <0>         1 GROUP 0 A     ****
@<TRIPOS>MOLECULE
*****
    5     4     1     0     0
SMALL
NO_CHARGES

@<TRIPOS>ATOM
      1 S1          2.4750   -1.4289    0.0000 S.3       1 <0>        0.00000
      2 S2          2.0625   -0.7145    0.0000 S.3       1 <0>        0.00000
      3 S3          1.2375   -0.7145    0.0000 S.3       1 <0>        0.00000
      4 S4          0.8250    0.0000    0.0000 S.3       1 <0>        0.00000
      5 S5          0.0000    0.0000    0.0000 S.3       1 <0>        0.00000
@<TRIPOS>BOND
     1    1    2 1
     2    2    3 1
     3    3    4 1
     4    4    5 1
@<TRIPOS>SUBSTRUCTURE
     1 <0>         1 GROUP 0 A     ****
@<TRIPOS>MOLECULE
AUP
   48    52     1     0     0
SMALL
NO_CHARGES

@<TRIPOS>ATOM
      1 C1          0.9733   -0.4914    0.0000 C.ar      1 <0>        0.00000
      2 C2          0.9733    0.3336    0.0000 C.ar      1 <0>        0.00000
      3 C3          1.6877    0.7461    0.0000 C.3       1 <0>        0.00000
      4 C4          2.4022    0.3336    0.0000 C.3       1 <0>        0.00000
      5 C5          2.4022   -0.4914    0.0000 C.3       1 <0>        0.00000
      6 C6          1.6877   -0.9039    0.0000 C.3       1 <0>        0.00000
      7 C7          0.1886   -0.7463    0.0000 C.ar      1 <0>        0.00000
      8 P1         -0.2963   -0.0789    0.0000 P.3       1 <0>        0.00000
      9 C8          0.1886    0.5885    0.0000 C.ar      1 <0>        0.00000
     10 N1         -0.8733    1.5447    0.0000 N.ar      1 <0>        0.00000
     11 C9         -1.1282    2.3293    0.0000 C.ar      1 <0>        0.00000
     12 C10        -0.5762    2.9424    0.0000 C.ar      1 <0>        0.00000
     13 C11         0.2308    2.7709    0.0000 C.ar      1 <0>        0.00000
     14 C12         0.4857    1.9863    0.0000 C.ar      1 <0>        0.00000
     15 C13        -0.0663    1.3732    0.0000 C.ar      1 <0>        0.00000
     16 C14        -2.7713   -0.0789    0.0000 C.ar      1 <0>        0.00000
     17 C15        -2.3588    0.6356    0.0000 C.ar      1 <0>        0.00000
     18 C16        -1.5338    0.6356    0.0000 C.ar      1 <0>        0.00000
     19 C17        -1.1213   -0.0789    0.0000 C.ar      1 <0>        0.00000
     20 C18        -1.5338   -0.7934    0.0000 C.ar      1 <0>        0.00000
     21 C19        -2.3588   -0.7934    0.0000 C.ar      1 <0>        0.00000
     22 N2         -0.8733   -1.7025    0.0000 N.ar      1 <0>        0.00000
     23 C20        -0.0663   -1.5310    0.0000 C.ar      1 <0>        0.00000
     24 C21         0.4857   -2.1441    0.0000 C.ar      1 <0>        0.00000
     25 C22         0.2308   -2.9287    0.0000 C.ar      1 <0>        0.00000
     26 C23        -0.5762   -3.1002    0.0000 C.ar      1 <0>        0.00000
     27 C24        -1.1282   -2.4871    0.0000 C.ar      1 <0>        0.00000
     28 H1          1.6877    0.7461    0.0000 H         1 <0>        0.00000
     29 H2          1.6877    0.7461    0.0000 H         1 <0>        0.00000
     30 H3          2.4022    0.3336    0.0000 H         1 <0>        0.00000
     31 H4          2.4022    0.3336    0.0000 H         1 <0>        0.00000
     32 H5          2.4022   -0.4914    0.0000 H         1 <0>        0.00000
     33 H6          2.4022   -0.4914    0.0000 H         1 <0>        0.00000
     34 H7          1.6877   -0.9039    0.0000 H         1 <0>        0.00000
     35 H8          1.6877   -0.9039    0.0000 H         1 <0>        0.00000
     36 H9         -1.1282    2.3293    0.0000 H         1 <0>        0.00000
     37 H10        -0.5762    2.9424    0.0000 H         1 <0>        0.00000
     38 H11         0.2308    2.7709    0.0000 H         1 <0>        0.00000
     39 H12         0.4857    1.9863    0.0000 H         1 <0>        0.00000
     40 H13        -2.7713   -0.0789    0.0000 H         1 <0>        0.00000
     41 H14        -2.3588    0.6356    0.0000 H         1 <0>        0.00000
     42 H15        -1.5338    0.6356    0.0000 H         1 <0>        0.00000
     43 H16        -1.5338   -0.7934    0.0000 H         1 <0>        0.00000
     44 H17        -2.3588   -0.7934    0.0000 H         1 <0>        0.00000
     45 H18         0.4857   -2.1441    0.0000 H         1 <0>        0.00000
     46 H19         0.2308   -2.9287    0.0000 H         1 <0>        0.00000
     47 H20        -0.5762   -3.1002    0.0000 H         1 <0>        0.00000
     48 H21        -1.1282   -2.4871    0.0000 H         1 <0>        0.00000
@<TRIPOS>BOND
     1    1    2 1
     2    1    6 1
     3    1    7 2
     4    2    3 1
     5    2    9 2
     6    3    4 1
     7    4    5 1
     8    5    6 1
     9    7    8 1
    10    7   23 1
    11    8    9 1
    12    8   19 1
    13    9   15 1
    14   10   11 ar
    15   10   15 ar
    16   11   12 ar
    17   12   13 ar
    18   13   14 ar
    19   14   15 ar
    20   16   17 ar
    21   16   21 ar
    22   17   18 ar
    23   18   19 ar
    24   19   20 ar
    25   20   21 ar
    26   22   23 ar
    27   22   27 ar
    28   23   24 ar
    29   24   25 ar
    30   25   26 ar
    31   26   27 ar
    32    3   28 1
    33    3   29 1
    34    4   30 1
    35    4   31 1
    36    5   32 1
    37    5   33 1
    38    6   34 1
    39    6   35 1
    40   11   36 1
    41   12   37 1
    42   13   38 1
    43   14   39 1
    44   16   40 1
    45   17   41 1
    46   18   42 1
    47   20   43 1
    48   21   44 1
    49   24   45 1
    50   25   46 1
    51   26   47 1
    52   27   48 1
@<TRIPOS>SUBSTRUCTURE
     1 <0>         1 GROUP 0 A     ****
@<TRIPOS>MOLECULE
*****
   62    67     1     0     0
SMALL
NO_CHARGES

@<TRIPOS>ATOM
      1 O1          2.1841   -4.3555    0.0000 O.3       1 <0>        0.00000
      2 O2          2.0126   -3.5486    0.0000 O.3       1 <0>        0.00000
      3 C1          2.6257   -2.9965    0.0000 C.3       1 <0>        0.00000
      4 C2          2.0126   -2.4445    0.0000 C.3       1 <0>        0.00000
      5 C3          1.2280   -2.6994    0.0000 C.ar      1 <0>        0.00000
      6 C4          1.0564   -3.5064    0.0000 C.ar      1 <0>        0.00000
      7 C5          0.2718   -3.7613    0.0000 C.ar      1 <0>        0.00000
      8 C6         -0.3413   -3.2093    0.0000 C.ar      1 <0>        0.00000
      9 C7         -1.1259   -3.4643    0.0000 C.ar      1 <0>        0.00000
     10 C8         -1.7390   -2.9122    0.0000 C.ar      1 <0>        0.00000
     11 C9         -1.5675   -2.1052    0.0000 C.ar      1 <0>        0.00000
     12 C10        -0.7828   -1.8503    0.0000 C.ar      1 <0>        0.00000
     13 C11        -0.1697   -2.4023    0.0000 C.ar      1 <0>        0.00000
     14 C12         0.6149   -2.1474    0.0000 C.ar      1 <0>        0.00000
     15 N1          3.1106   -3.6640    0.0000 N.2       1 <0>        0.00000
     16 C13         3.8952   -3.4090    0.0000 C.2       1 <0>        0.00000
     17 C14         4.6097   -3.8215    0.0000 C.3       1 <0>        0.00000
     18 C15         4.6097   -4.6465    0.0000 C.3       1 <0>        0.00000
     19 C16         5.3242   -5.0590    0.0000 C.ar      1 <0>        0.00000
     20 C17         6.0386   -4.6465    0.0000 C.ar      1 <0>        0.00000
     21 C18         6.7531   -5.0590    0.0000 C.ar      1 <0>        0.00000
     22 C19         6.7531   -5.8840    0.0000 C.ar      1 <0>        0.00000
     23 C20         6.0386   -6.2965    0.0000 C.ar      1 <0>        0.00000
     24 C21         5.3242   -5.8840    0.0000 C.ar      1 <0>        0.00000
     25 N2          5.3242   -3.4090    0.0000 N.pl3     1 <0>        0.00000
     26 C22         5.3242   -2.5840    0.0000 C.2       1 <0>        0.00000
     27 C23         4.6097   -2.1715    0.0000 C.2       1 <0>        0.00000
     28 N3          3.8952   -2.5840    0.0000 N.am      1 <0>        0.00000
     29 C24         3.1106   -2.3291    0.0000 C.2       1 <0>        0.00000
     30 O3          2.8557   -1.5445    0.0000 O.2       1 <0>        0.00000
     31 C25         6.0386   -2.1715    0.0000 C.ar      1 <0>        0.00000
     32 C26         6.0386   -1.3465    0.0000 C.ar      1 <0>        0.00000
     33 C27         6.7531   -0.9340    0.0000 C.ar      1 <0>        0.00000
     34 C28         7.4676   -1.3465    0.0000 C.ar      1 <0>        0.00000
     35 O4          8.1821   -0.9340    0.0000 O.3       1 <0>        0.00000
     36 C29         7.4676   -2.1715    0.0000 C.ar      1 <0>        0.00000
     37 C30         6.7531   -2.5840    0.0000 C.ar      1 <0>        0.00000
     38 H1          2.1841   -4.3555    0.0000 H         1 <0>        0.00000
     39 H2          2.0126   -2.4445    0.0000 H         1 <0>        0.00000
     40 H3          2.0126   -2.4445    0.0000 H         1 <0>        0.00000
     41 H4          1.0564   -3.5064    0.0000 H         1 <0>        0.00000
     42 H5          0.2718   -3.7613    0.0000 H         1 <0>        0.00000
     43 H6         -1.1259   -3.4643    0.0000 H         1 <0>        0.00000
     44 H7         -1.7390   -2.9122    0.0000 H         1 <0>        0.00000
     45 H8         -1.5675   -2.1052    0.0000 H         1 <0>        0.00000
     46 H9         -0.7828   -1.8503    0.0000 H         1 <0>        0.00000
     47 H10         0.6149   -2.1474    0.0000 H         1 <0>        0.00000
     48 H11         4.6097   -3.8215    0.0000 H         1 <0>        0.00000
     49 H12         4.6097   -4.6465    0.0000 H         1 <0>        0.00000
     50 H13         4.6097   -4.6465    0.0000 H         1 <0>        0.00000
     51 H14         6.0386   -4.6465    0.0000 H         1 <0>        0.00000
     52 H15         6.7531   -5.0590    0.0000 H         1 <0>        0.00000
     53 H16         6.7531   -5.8840    0.0000 H         1 <0>        0.00000
     54 H17         6.0386   -6.2965    0.0000 H         1 <0>        0.00000
     55 H18         5.3242   -5.8840    0.0000 H         1 <0>        0.00000
     56 H19         5.3242   -3.4090    0.0000 H         1 <0>        0.00000
     57 H20         4.6097   -2.1715    0.0000 H         1 <0>        0.00000
     58 H21         6.0386   -1.3465    0.0000 H         1 <0>        0.00000
     59 H22         6.7531   -0.9340    0.0000 H         1 <0>        0.00000
     60 H23         8.1821   -0.9340    0.0000 H         1 <0>        0.00000
     61 H24         7.4676   -2.1715    0.0000 H         1 <0>        0.00000
     62 H25         6.7531   -2.5840    0.0000 H         1 <0>        0.00000
@<TRIPOS>BOND
     1    1    2 1
     2    2    3 1
     3    3    4 1
     4    4    5 1
     5    5    6 ar
     6    6    7 ar
     7    7    8 ar
     8    8    9 ar
     9    9   10 ar
    10   10   11 ar
    11   11   12 ar
    12   12   13 ar
    13    8   13 ar
    14   13   14 ar
    15    5   14 ar
    16    3   15 1
    17   15   16 2
    18   16   17 1
    19   17   18 1
    20   18   19 1
    21   19   20 ar
    22   20   21 ar
    23   21   22 ar
    24   22   23 ar
    25   23   24 ar
    26   19   24 ar
    27   17   25 1
    28   25   26 1
    29   26   27 2
    30   27   28 1
    31   16   28 1
    32   28   29 am
    33    3   29 1
    34   29   30 2
    35   26   31 1
    36   31   32 ar
    37   32   33 ar
    38   33   34 ar
    39   34   35 1
    40   34   36 ar
    41   36   37 ar
    42   31   37 ar
    43    1   38 1
    44    4   39 1
    45    4   40 1
    46    6   41 1
    47    7   42 1
    48    9   43 1
    49   10   44 1
    50   11   45 1
    51   12   46 1
    52   14   47 1
    53   17   48 1
    54   18   49 1
    55   18   50 1
    56   20   51 1
    57   21   52 1
    58   22   53 1
    59   23   54 1
    60   24   55 1
    61   25   56 1
    62   27   57 1
    63   32   58 1
    64   33   59 1
    65   35   60 1
    66   36   61 1
    67   37   62 1
@<TRIPOS>SUBSTRUCTURE
     1 <0>         1 GROUP 0 A     ****
@<TRIPOS>MOLECULE
IBR
   28    28     1     0     0
SMALL
NO_CHARGES

@<TRIPOS>ATOM
      1 C1         -1.2722   -1.3651    0.0000 C.2       1 <0>        0.00000
      2 O1         -1.9867   -1.7776    0.0000 O.2       1 <0>        0.00000
      3 C2         -0.5577   -0.1276    0.0000 C.ar      1 <0>        0.00000
      4 C3         -1.2722   -0.5401    0.0000 C.ar      1 <0>        0.00000
      5 C4         -1.9867   -0.1276    0.0000 C.ar      1 <0>        0.00000
      6 C5         -1.9867    0.6974    0.0000 C.ar      1 <0>        0.00000
      7 C6         -1.2722    1.1099    0.0000 C.ar      1 <0>        0.00000
      8 C7         -0.5577    0.6974    0.0000 C.ar      1 <0>        0.00000
      9 N1         -2.7011    1.1099    0.0000 N.pl3     1 <0>        0.00000
     10 C8          0.8712   -0.1276    0.0000 C.2       1 <0>        0.00000
     11 C9          0.1568   -0.5401    0.0000 C.3       1 <0>        0.00000
     12 O2          1.5857   -0.5401    0.0000 O.3       1 <0>        0.00000
     13 O3          0.8712    0.6974    0.0000 O.2       1 <0>        0.00000
     14 C10         3.0146   -0.5401    0.0000 C.3       1 <0>        0.00000
     15 C11         2.3002   -0.1276    0.0000 C.3       1 <0>        0.00000
     16 Br1         3.7291   -0.1276    0.0000 Br        1 <0>        0.00000
     17 H1         -1.2722   -1.3651    0.0000 H         1 <0>        0.00000
     18 H2         -1.9867   -0.1276    0.0000 H         1 <0>        0.00000
     19 H3         -1.2722    1.1099    0.0000 H         1 <0>        0.00000
     20 H4         -0.5577    0.6974    0.0000 H         1 <0>        0.00000
     21 H5         -2.7011    1.1099    0.0000 H         1 <0>        0.00000
     22 H6         -2.7011    1.1099    0.0000 H         1 <0>        0.00000
     23 H7          0.1568   -0.5401    0.0000 H         1 <0>        0.00000
     24 H8          0.1568   -0.5401    0.0000 H         1 <0>        0.00000
     25 H9          3.0146   -0.5401    0.0000 H         1 <0>        0.00000
     26 H10         3.0146   -0.5401    0.0000 H         1 <0>        0.00000
     27 H11         2.3002   -0.1276    0.0000 H         1 <0>        0.00000
     28 H12         2.3002   -0.1276    0.0000 H         1 <0>        0.00000
@<TRIPOS>BOND
     1    1    2 2
     2    1    4 1
     3    3    4 ar
     4    3    8 ar
     5    3   11 1
     6    4    5 ar
     7    5    6 ar
     8    6    7 ar
     9    6    9 1
    10    7    8 ar
    11   10   11 1
    12   10   12 1
    13   10   13 2
    14   12   15 1
    15   14   15 1
    16   14   16 1
    17    1   17 1
    18    5   18 1
    19    7   19 1
    20    8   20 1
    21    9   21 1
    22    9   22 1
    23   11   23 1
    24   11   24 1
    25   14   25 1
    26   14   26 1
    27   15   27 1
    28   15   28 1
@<TRIPOS>SUBSTRUCTURE
     1 <0>         1 GROUP 0 A     ****
@<TRIPOS>MOLECULE
OSP
   32    33     1     0     0
SMALL
NO_CHARGES

@<TRIPOS>ATOM
      1 O1          1.0524    0.4265    0.0000 O.2       1 <0>        0.00000
      2 S1          1.5827   -0.2055    0.0000 S.o2      1 <0>        0.00000
      3 O2          2.1130    0.4265    0.0000 O.2       1 <0>        0.00000
      4 C1          2.2972   -0.6180    0.0000 C.3       1 <0>        0.00000
      5 C2          2.2972   -1.4430    0.0000 C.3       1 <0>        0.00000
      6 C3          1.5827   -1.8555    0.0000 C.3       1 <0>        0.00000
      7 C4          0.8683   -1.4430    0.0000 C.3       1 <0>        0.00000
      8 N1          0.8683   -0.6180    0.0000 N.pl3     1 <0>        0.00000
      9 C5          0.1538   -0.2055    0.0000 C.ar      1 <0>        0.00000
     10 C6         -0.5607   -0.6180    0.0000 C.ar      1 <0>        0.00000
     11 C7         -1.2751   -0.2055    0.0000 C.ar      1 <0>        0.00000
     12 C8          0.1538    0.6195    0.0000 C.ar      1 <0>        0.00000
     13 C9         -0.5607    1.0320    0.0000 C.ar      1 <0>        0.00000
     14 C10        -1.2751    0.6195    0.0000 C.ar      1 <0>        0.00000
     15 S2         -1.9896    1.0320    0.0000 S.o2      1 <0>        0.00000
     16 O3         -2.7041    1.4445    0.0000 O.2       1 <0>        0.00000
     17 O4         -2.4021    0.3175    0.0000 O.2       1 <0>        0.00000
     18 N2         -1.5771    1.7465    0.0000 N.pl3     1 <0>        0.00000
     19 H1          2.2972   -0.6180    0.0000 H         1 <0>        0.00000
     20 H2          2.2972   -0.6180    0.0000 H         1 <0>        0.00000
     21 H3          2.2972   -1.4430    0.0000 H         1 <0>        0.00000
     22 H4          2.2972   -1.4430    0.0000 H         1 <0>        0.00000
     23 H5          1.5827   -1.8555    0.0000 H         1 <0>        0.00000
     24 H6          1.5827   -1.8555    0.0000 H         1 <0>        0.00000
     25 H7          0.8683   -1.4430    0.0000 H         1 <0>        0.00000
     26 H8          0.8683   -1.4430    0.0000 H         1 <0>        0.00000
     27 H9         -0.5607   -0.6180    0.0000 H         1 <0>        0.00000
     28 H10        -1.2751   -0.2055    0.0000 H         1 <0>        0.00000
     29 H11         0.1538    0.6195    0.0000 H         1 <0>        0.00000
     30 H12        -0.5607    1.0320    0.0000 H         1 <0>        0.00000
     31 H13        -1.5771    1.7465    0.0000 H         1 <0>        0.00000
     32 H14        -1.5771    1.7465    0.0000 H         1 <0>        0.00000
@<TRIPOS>BOND
     1    1    2 2
     2    2    4 1
     3    2    3 2
     4    2    8 1
     5    4    5 1
     6    5    6 1
     7    6    7 1
     8    7    8 1
     9    8    9 1
    10    9   10 ar
    11    9   12 ar
    12   10   11 ar
    13   11   14 ar
    14   12   13 ar
    15   13   14 ar
    16   14   15 1
    17   15   18 1
    18   15   16 2
    19   15   17 2
    20    4   19 1
    21    4   20 1
    22    5   21 1
    23    5   22 1
    24    6   23 1
    25    6   24 1
    26    7   25 1
    27    7   26 1
    28   10   27 1
    29   11   28 1
    30   12   29 1
    31   13   30 1
    32   18   31 1
    33   18   32 1
@<TRIPOS>SUBSTRUCTURE
     1 <0>         1 GROUP 0 A     ****
@<TRIPOS>MOLECULE
*****
  142   152     1     0     0
SMALL
NO_CHARGES

@<TRIPOS>ATOM
      1 C1         10.7427    3.2869    0.0000 C.3       1 <0>        0.00000
      2 N1          9.9786    2.9758    0.0000 N.am      1 <0>        0.00000
      3 C2          9.8660    2.1585    0.0000 C.2       1 <0>        0.00000
      4 O1          9.1019    1.8474    0.0000 O.2       1 <0>        0.00000
      5 C3         10.5175    1.6524    0.0000 C.3       1 <0>        0.00000
      6 C4         10.4049    0.8351    0.0000 C.3       1 <0>        0.00000
      7 N2         11.1957    0.6001    0.0000 N.am      1 <0>        0.00000
      8 C5         11.9175    0.2005    0.0000 C.2       1 <0>        0.00000
      9 O2         12.3927    0.8749    0.0000 O.2       1 <0>        0.00000
     10 C6         12.5365   -0.3449    0.0000 C.ar      1 <0>        0.00000
     11 C7         13.3435   -0.1733    0.0000 C.ar      1 <0>        0.00000
     12 S1         13.7560   -0.8878    0.0000 S.3       1 <0>        0.00000
     13 C8         13.2039   -1.5009    0.0000 C.ar      1 <0>        0.00000
     14 N3         12.4503   -1.1653    0.0000 N.ar      1 <0>        0.00000
     15 C9         13.5194   -2.5742    0.0000 C.ar      1 <0>        0.00000
     16 C10        14.2412   -2.1747    0.0000 C.ar      1 <0>        0.00000
     17 C11        14.9481   -2.6000    0.0000 C.ar      1 <0>        0.00000
     18 C12        14.9332   -3.4249    0.0000 C.ar      1 <0>        0.00000
     19 N4         14.2114   -3.8244    0.0000 N.ar      1 <0>        0.00000
     20 C13        13.5045   -3.3991    0.0000 C.ar      1 <0>        0.00000
     21 C14        13.3126   -4.2015    0.0000 C.ar      1 <0>        0.00000
     22 C15        13.8422   -4.8341    0.0000 C.ar      1 <0>        0.00000
     23 S2         13.4041   -5.5332    0.0000 S.3       1 <0>        0.00000
     24 C16        12.6039   -5.3326    0.0000 C.ar      1 <0>        0.00000
     25 N5         12.5473   -4.5096    0.0000 N.ar      1 <0>        0.00000
     26 C17        11.8034   -6.1141    0.0000 C.ar      1 <0>        0.00000
     27 C18        11.8421   -6.9382    0.0000 C.ar      1 <0>        0.00000
     28 S3         11.0703   -7.2297    0.0000 S.3       1 <0>        0.00000
     29 C19        10.5546   -6.5857    0.0000 C.ar      1 <0>        0.00000
     30 N6         11.0077   -5.8963    0.0000 N.ar      1 <0>        0.00000
     31 C20         9.4444   -6.7234    0.0000 C.3       1 <0>        0.00000
     32 N7          8.6328   -6.5752    0.0000 N.am      1 <0>        0.00000
     33 C21         7.8720   -6.2561    0.0000 C.2       1 <0>        0.00000
     34 O3          7.4725   -6.9779    0.0000 O.2       1 <0>        0.00000
     35 C22         7.1976   -5.7808    0.0000 C.3       1 <0>        0.00000
     36 N8          6.6412   -5.1717    0.0000 N.am      1 <0>        0.00000
     37 C23         6.2287   -4.4573    0.0000 C.2       1 <0>        0.00000
     38 O4          5.4738   -4.7901    0.0000 O.2       1 <0>        0.00000
     39 C24         5.9795   -3.6708    0.0000 C.ar      1 <0>        0.00000
     40 C25         5.1996   -3.4017    0.0000 C.ar      1 <0>        0.00000
     41 C26         4.5235   -3.8745    0.0000 C.3       1 <0>        0.00000
     42 O5          3.7760   -3.5254    0.0000 O.3       1 <0>        0.00000
     43 C27         3.0999   -3.9982    0.0000 C.3       1 <0>        0.00000
     44 S4          5.2145   -2.5769    0.0000 S.3       1 <0>        0.00000
     45 C28         6.0036   -2.3362    0.0000 C.ar      1 <0>        0.00000
     46 N9          6.4764   -3.0122    0.0000 N.ar      1 <0>        0.00000
     47 C29         6.2866   -1.2538    0.0000 C.3       1 <0>        0.00000
     48 N10         6.7247   -0.5547    0.0000 N.am      1 <0>        0.00000
     49 C30         7.3027    0.0339    0.0000 C.2       1 <0>        0.00000
     50 O6          6.7801    0.6722    0.0000 O.2       1 <0>        0.00000
     51 C31         7.9938    0.4844    0.0000 C.ar      1 <0>        0.00000
     52 C32         8.0445    1.3079    0.0000 C.ar      1 <0>        0.00000
     53 C33         7.4080    1.8328    0.0000 C.3       1 <0>        0.00000
     54 S5          8.8432    1.5142    0.0000 S.3       1 <0>        0.00000
     55 C34         9.2863    0.8183    0.0000 C.ar      1 <0>        0.00000
     56 N11         8.7613    0.1818    0.0000 N.ar      1 <0>        0.00000
     57 C35         5.5293   -0.9267    0.0000 C.3       1 <0>        0.00000
     58 C36         5.4339   -0.1072    0.0000 C.3       1 <0>        0.00000
     59 C37         4.8673   -1.4190    0.0000 C.3       1 <0>        0.00000
     60 C38         9.4208   -7.5481    0.0000 C.3       1 <0>        0.00000
     61 O7          8.6948   -7.9400    0.0000 O.3       1 <0>        0.00000
     62 C39        10.1232   -7.9808    0.0000 C.ar      1 <0>        0.00000
     63 C40        10.8491   -7.5889    0.0000 C.ar      1 <0>        0.00000
     64 C41        11.5515   -8.0217    0.0000 C.ar      1 <0>        0.00000
     65 C42        11.5279   -8.8463    0.0000 C.ar      1 <0>        0.00000
     66 C43        10.8020   -9.2382    0.0000 C.ar      1 <0>        0.00000
     67 C44        10.0996   -8.8055    0.0000 C.ar      1 <0>        0.00000
     68 C45        15.6401   -3.8503    0.0000 C.ar      1 <0>        0.00000
     69 N12        16.3997   -3.5284    0.0000 N.ar      1 <0>        0.00000
     70 C46        16.9406   -4.1513    0.0000 C.ar      1 <0>        0.00000
     71 C47        16.5153   -4.8582    0.0000 C.ar      1 <0>        0.00000
     72 S6         15.7115   -4.6722    0.0000 S.3       1 <0>        0.00000
     73 C48        17.7625   -4.0799    0.0000 C.2       1 <0>        0.00000
     74 N13        18.1879   -3.3730    0.0000 N.2       1 <0>        0.00000
     75 C49        18.9916   -3.5591    0.0000 C.3       1 <0>        0.00000
     76 C50        19.0630   -4.3810    0.0000 C.3       1 <0>        0.00000
     77 O8         18.3034   -4.7029    0.0000 O.3       1 <0>        0.00000
     78 C51        19.6146   -3.0183    0.0000 C.2       1 <0>        0.00000
     79 O9         20.3945   -3.2873    0.0000 O.2       1 <0>        0.00000
     80 N14        19.4577   -2.2083    0.0000 N.am      1 <0>        0.00000
     81 C52        18.7102   -1.8592    0.0000 C.3       1 <0>        0.00000
     82 C53        18.8112   -1.0404    0.0000 C.3       1 <0>        0.00000
     83 C54        19.6212   -0.8835    0.0000 C.3       1 <0>        0.00000
     84 C55        20.0207   -1.6053    0.0000 C.3       1 <0>        0.00000
     85 C56        20.8395   -1.7064    0.0000 C.2       1 <0>        0.00000
     86 N15        21.3364   -1.0478    0.0000 N.am      1 <0>        0.00000
     87 O10        21.1613   -2.4660    0.0000 O.2       1 <0>        0.00000
     88 H1         10.7427    3.2869    0.0000 H         1 <0>        0.00000
     89 H2         10.7427    3.2869    0.0000 H         1 <0>        0.00000
     90 H3         10.7427    3.2869    0.0000 H         1 <0>        0.00000
     91 H4          9.9786    2.9758    0.0000 H         1 <0>        0.00000
     92 H5         10.5175    1.6524    0.0000 H         1 <0>        0.00000
     93 H6         10.5175    1.6524    0.0000 H         1 <0>        0.00000
     94 H7         10.4049    0.8351    0.0000 H         1 <0>        0.00000
     95 H8         11.1957    0.6001    0.0000 H         1 <0>        0.00000
     96 H9         13.3435   -0.1733    0.0000 H         1 <0>        0.00000
     97 H10        14.2412   -2.1747    0.0000 H         1 <0>        0.00000
     98 H11        14.9481   -2.6000    0.0000 H         1 <0>        0.00000
     99 H12        13.8422   -4.8341    0.0000 H         1 <0>        0.00000
    100 H13        11.8421   -6.9382    0.0000 H         1 <0>        0.00000
    101 H14         9.4444   -6.7234    0.0000 H         1 <0>        0.00000
    102 H15         8.6328   -6.5752    0.0000 H         1 <0>        0.00000
    103 H16         7.1976   -5.7808    0.0000 H         1 <0>        0.00000
    104 H17         7.1976   -5.7808    0.0000 H         1 <0>        0.00000
    105 H18         6.6412   -5.1717    0.0000 H         1 <0>        0.00000
    106 H19         4.5235   -3.8745    0.0000 H         1 <0>        0.00000
    107 H20         4.5235   -3.8745    0.0000 H         1 <0>        0.00000
    108 H21         3.0999   -3.9982    0.0000 H         1 <0>        0.00000
    109 H22         3.0999   -3.9982    0.0000 H         1 <0>        0.00000
    110 H23         3.0999   -3.9982    0.0000 H         1 <0>        0.00000
    111 H24         6.2866   -1.2538    0.0000 H         1 <0>        0.00000
    112 H25         6.7247   -0.5547    0.0000 H         1 <0>        0.00000
    113 H26         7.4080    1.8328    0.0000 H         1 <0>        0.00000
    114 H27         7.4080    1.8328    0.0000 H         1 <0>        0.00000
    115 H28         7.4080    1.8328    0.0000 H         1 <0>        0.00000
    116 H29         5.5293   -0.9267    0.0000 H         1 <0>        0.00000
    117 H30         5.4339   -0.1072    0.0000 H         1 <0>        0.00000
    118 H31         5.4339   -0.1072    0.0000 H         1 <0>        0.00000
    119 H32         5.4339   -0.1072    0.0000 H         1 <0>        0.00000
    120 H33         4.8673   -1.4190    0.0000 H         1 <0>        0.00000
    121 H34         4.8673   -1.4190    0.0000 H         1 <0>        0.00000
    122 H35         4.8673   -1.4190    0.0000 H         1 <0>        0.00000
    123 H36         9.4208   -7.5481    0.0000 H         1 <0>        0.00000
    124 H37         8.6948   -7.9400    0.0000 H         1 <0>        0.00000
    125 H38        10.8491   -7.5889    0.0000 H         1 <0>        0.00000
    126 H39        11.5515   -8.0217    0.0000 H         1 <0>        0.00000
    127 H40        11.5279   -8.8463    0.0000 H         1 <0>        0.00000
    128 H41        10.8020   -9.2382    0.0000 H         1 <0>        0.00000
    129 H42        10.0996   -8.8055    0.0000 H         1 <0>        0.00000
    130 H43        16.5153   -4.8582    0.0000 H         1 <0>        0.00000
    131 H44        18.9916   -3.5591    0.0000 H         1 <0>        0.00000
    132 H45        19.0630   -4.3810    0.0000 H         1 <0>        0.00000
    133 H46        19.0630   -4.3810    0.0000 H         1 <0>        0.00000
    134 H47        18.7102   -1.8592    0.0000 H         1 <0>        0.00000
    135 H48        18.7102   -1.8592    0.0000 H         1 <0>        0.00000
    136 H49        18.8112   -1.0404    0.0000 H         1 <0>        0.00000
    137 H50        18.8112   -1.0404    0.0000 H         1 <0>        0.00000
    138 H51        19.6212   -0.8835    0.0000 H         1 <0>        0.00000
    139 H52        19.6212   -0.8835    0.0000 H         1 <0>        0.00000
    140 H53        20.0207   -1.6053    0.0000 H         1 <0>        0.00000
    141 H54        21.3364   -1.0478    0.0000 H         1 <0>        0.00000
    142 H55        21.3364   -1.0478    0.0000 H         1 <0>        0.00000
@<TRIPOS>BOND
     1    1    2 1
     2    2    3 am
     3    3    4 2
     4    3    5 1
     5    5    6 1
     6    6    7 1
     7    7    8 am
     8    8    9 2
     9    8   10 1
    10   10   11 2
    11   11   12 1
    12   12   13 1
    13   13   14 2
    14   10   14 1
    15   13   15 1
    16   15   16 ar
    17   16   17 ar
    18   17   18 ar
    19   18   19 ar
    20   19   20 ar
    21   15   20 ar
    22   20   21 1
    23   21   22 2
    24   22   23 1
    25   23   24 1
    26   24   25 2
    27   21   25 1
    28   24   26 1
    29   26   27 2
    30   27   28 1
    31   28   29 1
    32   29   30 2
    33   26   30 1
    34   29   31 1
    35   31   32 1
    36   32   33 am
    37   33   34 2
    38   33   35 1
    39   35   36 1
    40   36   37 am
    41   37   38 2
    42   37   39 1
    43   39   40 2
    44   40   41 1
    45   41   42 1
    46   42   43 1
    47   40   44 1
    48   44   45 1
    49   45   46 2
    50   39   46 1
    51   45   47 1
    52   47   48 1
    53   48   49 am
    54   49   50 2
    55   49   51 1
    56   51   52 2
    57   52   53 1
    58   52   54 1
    59   54   55 1
    60    6   55 1
    61   55   56 2
    62   51   56 1
    63   47   57 1
    64   57   58 1
    65   57   59 1
    66   31   60 1
    67   60   61 1
    68   60   62 1
    69   62   63 ar
    70   63   64 ar
    71   64   65 ar
    72   65   66 ar
    73   66   67 ar
    74   62   67 ar
    75   18   68 1
    76   68   69 2
    77   69   70 1
    78   70   71 2
    79   71   72 1
    80   68   72 1
    81   70   73 1
    82   73   74 2
    83   74   75 1
    84   75   76 1
    85   76   77 1
    86   73   77 1
    87   75   78 1
    88   78   79 2
    89   78   80 am
    90   80   81 1
    91   81   82 1
    92   82   83 1
    93   83   84 1
    94   80   84 1
    95   84   85 1
    96   85   86 am
    97   85   87 2
    98    1   88 1
    99    1   89 1
   100    1   90 1
   101    2   91 1
   102    5   92 1
   103    5   93 1
   104    6   94 1
   105    7   95 1
   106   11   96 1
   107   16   97 1
   108   17   98 1
   109   22   99 1
   110   27  100 1
   111   31  101 1
   112   32  102 1
   113   35  103 1
   114   35  104 1
   115   36  105 1
   116   41  106 1
   117   41  107 1
   118   43  108 1
   119   43  109 1
   120   43  110 1
   121   47  111 1
   122   48  112 1
   123   53  113 1
   124   53  114 1
   125   53  115 1
   126   57  116 1
   127   58  117 1
   128   58  118 1
   129   58  119 1
   130   59  120 1
   131   59  121 1
   132   59  122 1
   133   60  123 1
   134   61  124 1
   135   63  125 1
   136   64  126 1
   137   65  127 1
   138   66  128 1
   139   67  129 1
   140   71  130 1
   141   75  131 1
   142   76  132 1
   143   76  133 1
   144   81  134 1
   145   81  135 1
   146   82  136 1
   147   82  137 1
   148   83  138 1
   149   83  139 1
   150   84  140 1
   151   86  141 1
   152   86  142 1
@<TRIPOS>SUBSTRUCTURE
     1 <0>         1 GROUP 0 A     ****
@<TRIPOS>MOLECULE
*****
  203   206     1     0     0
SMALL
NO_CHARGES

 
@<TRIPOS>ATOM
      1 S1         14.4329  -12.5210    0.0000 S.3       1 <0>        0.00000
      2 C1         15.2579  -12.5210    0.0000 C.3       1 <0>        0.00000
      3 C2         15.5054  -11.7372    0.0000 C.3       1 <0>        0.00000
      4 N1         14.8454  -11.2422    0.0000 N.2       1 <0>        0.00000
      5 C3         14.1854  -11.7372    0.0000 C.2       1 <0>        0.00000
      6 C4         13.4842  -11.3247    0.0000 C.3       1 <0>        0.00000
      7 N2         12.7416  -11.7372    0.0000 N.3       1 <0>        0.00000
      8 C5         16.2067  -11.3247    0.0000 C.2       1 <0>        0.00000
      9 N3         16.9492  -11.7372    0.0000 N.am      1 <0>        0.00000
     10 C6         17.6505  -11.3247    0.0000 C.3       1 <0>        0.00000
     11 C7         18.3518  -11.7372    0.0000 C.2       1 <0>        0.00000
     12 N4         19.0943  -11.3247    0.0000 N.am      1 <0>        0.00000
     13 C8         19.7955  -11.7372    0.0000 C.3       1 <0>        0.00000
     14 C9         20.4968  -11.3247    0.0000 C.2       1 <0>        0.00000
     15 N5         21.2393  -11.7372    0.0000 N.am      1 <0>        0.00000
     16 C10        21.9406  -11.3247    0.0000 C.3       1 <0>        0.00000
     17 C11        22.6419  -11.7372    0.0000 C.2       1 <0>        0.00000
     18 N6         23.3844  -11.3247    0.0000 N.am      1 <0>        0.00000
     19 C12        24.0857  -11.7372    0.0000 C.3       1 <0>        0.00000
     20 C13        24.7869  -11.3247    0.0000 C.2       1 <0>        0.00000
     21 N7         25.4881  -11.7372    0.0000 N.am      1 <0>        0.00000
     22 C14        26.2307  -11.3247    0.0000 C.3       1 <0>        0.00000
     23 C15        26.9319  -11.7372    0.0000 C.2       1 <0>        0.00000
     24 N8         27.6332  -11.3247    0.0000 N.am      1 <0>        0.00000
     25 C16        13.4842  -10.4996    0.0000 C.3       1 <0>        0.00000
     26 C17        14.1854  -10.0872    0.0000 C.3       1 <0>        0.00000
     27 C18        12.7829  -10.0872    0.0000 C.3       1 <0>        0.00000
     28 C19        12.7829   -9.2621    0.0000 C.3       1 <0>        0.00000
     29 O1         16.2067  -10.4996    0.0000 O.2       1 <0>        0.00000
     30 O2         18.3518  -12.5622    0.0000 O.2       1 <0>        0.00000
     31 O3         20.4968  -10.4996    0.0000 O.2       1 <0>        0.00000
     32 O4         22.6419  -12.5622    0.0000 O.2       1 <0>        0.00000
     33 O5         24.7869  -10.4996    0.0000 O.2       1 <0>        0.00000
     34 O6         26.9319  -12.5622    0.0000 O.2       1 <0>        0.00000
     35 C20        17.5680  -10.1696    0.0000 C.3       1 <0>        0.00000
     36 C21        18.2692   -9.7571    0.0000 C.3       1 <0>        0.00000
     37 C22        18.9705  -10.1696    0.0000 C.3       1 <0>        0.00000
     38 C23        18.2692   -8.9321    0.0000 C.3       1 <0>        0.00000
     39 C24        19.7955  -12.5622    0.0000 C.3       1 <0>        0.00000
     40 C25        19.0943  -12.9747    0.0000 C.3       1 <0>        0.00000
     41 C26        19.0943  -13.7997    0.0000 C.2       1 <0>        0.00000
     42 O7         18.3518  -14.2122    0.0000 O.3       1 <0>        0.00000
     43 O8         19.7955  -14.2122    0.0000 O.2       1 <0>        0.00000
     44 C27        21.9406  -10.4996    0.0000 C.3       1 <0>        0.00000
     45 C28        21.2393  -10.0872    0.0000 C.3       1 <0>        0.00000
     46 C29        22.6419  -10.0872    0.0000 C.3       1 <0>        0.00000
     47 C30        21.2393   -9.2621    0.0000 C.3       1 <0>        0.00000
     48 C31        24.0857  -12.5622    0.0000 C.3       1 <0>        0.00000
     49 C32        26.2307  -10.4996    0.0000 C.3       1 <0>        0.00000
     50 C33        28.3345  -11.7372    0.0000 C.3       1 <0>        0.00000
     51 C34        28.3345  -12.9747    0.0000 C.2       1 <0>        0.00000
     52 O9         27.6332  -13.3872    0.0000 O.2       1 <0>        0.00000
     53 N9         29.0770  -13.3872    0.0000 N.am      1 <0>        0.00000
     54 C35        29.0770  -14.5010    0.0000 C.3       1 <0>        0.00000
     55 C36        28.3345  -14.9135    0.0000 C.2       1 <0>        0.00000
     56 N10        28.3345  -15.7385    0.0000 N.am      1 <0>        0.00000
     57 O10        27.6332  -14.5010    0.0000 O.2       1 <0>        0.00000
     58 C37        27.6332  -16.1510    0.0000 C.3       1 <0>        0.00000
     59 C38        26.9319  -15.7385    0.0000 C.2       1 <0>        0.00000
     60 N11        26.1894  -16.1510    0.0000 N.am      1 <0>        0.00000
     61 O11        26.9319  -14.9135    0.0000 O.2       1 <0>        0.00000
     62 C39        25.4750  -15.7385    0.0000 C.3       1 <0>        0.00000
     63 C40        24.7605  -16.1510    0.0000 C.2       1 <0>        0.00000
     64 N12        24.0460  -15.7385    0.0000 N.am      1 <0>        0.00000
     65 O12        24.7605  -16.9760    0.0000 O.2       1 <0>        0.00000
     66 C41        23.3712  -12.9747    0.0000 C.3       1 <0>        0.00000
     67 C42        26.9451  -10.0872    0.0000 C.3       1 <0>        0.00000
     68 C43        26.9451   -9.2621    0.0000 C.3       1 <0>        0.00000
     69 N13        26.2307   -8.8496    0.0000 N.3       1 <0>        0.00000
     70 C44        29.0490  -11.3247    0.0000 C.3       1 <0>        0.00000
     71 C45        29.7535  -11.7315    0.0000 C.3       1 <0>        0.00000
     72 C46        29.0490  -10.4998    0.0000 C.3       1 <0>        0.00000
     73 C47        29.7635  -10.0872    0.0000 C.3       1 <0>        0.00000
     74 C48        29.7915  -14.9135    0.0000 C.3       1 <0>        0.00000
     75 C49        30.5060  -14.5010    0.0000 C.ar      1 <0>        0.00000
     76 C50        31.2315  -14.9200    0.0000 C.ar      1 <0>        0.00000
     77 C51        31.9460  -14.5076    0.0000 C.ar      1 <0>        0.00000
     78 C52        31.9461  -13.6826    0.0000 C.ar      1 <0>        0.00000
     79 C53        31.2206  -13.2636    0.0000 C.ar      1 <0>        0.00000
     80 C54        30.5061  -13.6759    0.0000 C.ar      1 <0>        0.00000
     81 C55        27.6332  -16.9760    0.0000 C.3       1 <0>        0.00000
     82 C56        28.3477  -17.3885    0.0000 C.ar      1 <0>        0.00000
     83 N14        28.4338  -18.2076    0.0000 N.ar      1 <0>        0.00000
     84 C57        29.2393  -18.3788    0.0000 C.ar      1 <0>        0.00000
     85 N15        29.6511  -17.6656    0.0000 N.pl3     1 <0>        0.00000
     86 C58        29.1000  -17.0536    0.0000 C.ar      1 <0>        0.00000
     87 C59        23.3315  -16.1510    0.0000 C.3       1 <0>        0.00000
     88 C60        22.6170  -15.7385    0.0000 C.2       1 <0>        0.00000
     89 N16        22.6170  -14.9135    0.0000 N.am      1 <0>        0.00000
     90 O13        21.9025  -16.1510    0.0000 O.2       1 <0>        0.00000
     91 C61        23.3315  -16.9760    0.0000 C.3       1 <0>        0.00000
     92 C62        22.6170  -17.3885    0.0000 C.2       1 <0>        0.00000
     93 O14        22.6170  -18.2135    0.0000 O.2       1 <0>        0.00000
     94 N17        21.9025  -16.9760    0.0000 N.am      1 <0>        0.00000
     95 C63        23.3712  -13.7997    0.0000 C.3       1 <0>        0.00000
     96 C64        25.4750  -14.5835    0.0000 C.3       1 <0>        0.00000
     97 C65        22.6566  -14.2122    0.0000 C.3       1 <0>        0.00000
     98 C66        24.7605  -14.1710    0.0000 C.2       1 <0>        0.00000
     99 O15        24.0460  -14.5835    0.0000 O.2       1 <0>        0.00000
    100 O16        24.7605  -13.3460    0.0000 O.3       1 <0>        0.00000
    101 H1         15.2579  -12.5210    0.0000 H         1 <0>        0.00000
    102 H2         15.2579  -12.5210    0.0000 H         1 <0>        0.00000
    103 H3         15.5054  -11.7372    0.0000 H         1 <0>        0.00000
    104 H4         13.4842  -11.3247    0.0000 H         1 <0>        0.00000
    105 H5         12.7416  -11.7372    0.0000 H         1 <0>        0.00000
    106 H6         12.7416  -11.7372    0.0000 H         1 <0>        0.00000
    107 H7         16.9492  -11.7372    0.0000 H         1 <0>        0.00000
    108 H8         17.6505  -11.3247    0.0000 H         1 <0>        0.00000
    109 H9         19.0943  -11.3247    0.0000 H         1 <0>        0.00000
    110 H10        19.7955  -11.7372    0.0000 H         1 <0>        0.00000
    111 H11        21.2393  -11.7372    0.0000 H         1 <0>        0.00000
    112 H12        21.9406  -11.3247    0.0000 H         1 <0>        0.00000
    113 H13        23.3844  -11.3247    0.0000 H         1 <0>        0.00000
    114 H14        24.0857  -11.7372    0.0000 H         1 <0>        0.00000
    115 H15        25.4881  -11.7372    0.0000 H         1 <0>        0.00000
    116 H16        26.2307  -11.3247    0.0000 H         1 <0>        0.00000
    117 H17        27.6332  -11.3247    0.0000 H         1 <0>        0.00000
    118 H18        13.4842  -10.4996    0.0000 H         1 <0>        0.00000
    119 H19        14.1854  -10.0872    0.0000 H         1 <0>        0.00000
    120 H20        14.1854  -10.0872    0.0000 H         1 <0>        0.00000
    121 H21        14.1854  -10.0872    0.0000 H         1 <0>        0.00000
    122 H22        12.7829  -10.0872    0.0000 H         1 <0>        0.00000
    123 H23        12.7829  -10.0872    0.0000 H         1 <0>        0.00000
    124 H24        12.7829   -9.2621    0.0000 H         1 <0>        0.00000
    125 H25        12.7829   -9.2621    0.0000 H         1 <0>        0.00000
    126 H26        12.7829   -9.2621    0.0000 H         1 <0>        0.00000
    127 H27        17.5680  -10.1696    0.0000 H         1 <0>        0.00000
    128 H28        17.5680  -10.1696    0.0000 H         1 <0>        0.00000
    129 H29        18.2692   -9.7571    0.0000 H         1 <0>        0.00000
    130 H30        18.9705  -10.1696    0.0000 H         1 <0>        0.00000
    131 H31        18.9705  -10.1696    0.0000 H         1 <0>        0.00000
    132 H32        18.9705  -10.1696    0.0000 H         1 <0>        0.00000
    133 H33        18.2692   -8.9321    0.0000 H         1 <0>        0.00000
    134 H34        18.2692   -8.9321    0.0000 H         1 <0>        0.00000
    135 H35        18.2692   -8.9321    0.0000 H         1 <0>        0.00000
    136 H36        19.7955  -12.5622    0.0000 H         1 <0>        0.00000
    137 H37        19.7955  -12.5622    0.0000 H         1 <0>        0.00000
    138 H38        19.0943  -12.9747    0.0000 H         1 <0>        0.00000
    139 H39        19.0943  -12.9747    0.0000 H         1 <0>        0.00000
    140 H40        18.3518  -14.2122    0.0000 H         1 <0>        0.00000
    141 H41        21.9406  -10.4996    0.0000 H         1 <0>        0.00000
    142 H42        21.2393  -10.0872    0.0000 H         1 <0>        0.00000
    143 H43        21.2393  -10.0872    0.0000 H         1 <0>        0.00000
    144 H44        22.6419  -10.0872    0.0000 H         1 <0>        0.00000
    145 H45        22.6419  -10.0872    0.0000 H         1 <0>        0.00000
    146 H46        22.6419  -10.0872    0.0000 H         1 <0>        0.00000
    147 H47        21.2393   -9.2621    0.0000 H         1 <0>        0.00000
    148 H48        21.2393   -9.2621    0.0000 H         1 <0>        0.00000
    149 H49        21.2393   -9.2621    0.0000 H         1 <0>        0.00000
    150 H50        24.0857  -12.5622    0.0000 H         1 <0>        0.00000
    151 H51        24.0857  -12.5622    0.0000 H         1 <0>        0.00000
    152 H52        26.2307  -10.4996    0.0000 H         1 <0>        0.00000
    153 H53        26.2307  -10.4996    0.0000 H         1 <0>        0.00000
    154 H54        28.3345  -11.7372    0.0000 H         1 <0>        0.00000
    155 H55        29.0770  -13.3872    0.0000 H         1 <0>        0.00000
    156 H56        29.0770  -14.5010    0.0000 H         1 <0>        0.00000
    157 H57        28.3345  -15.7385    0.0000 H         1 <0>        0.00000
    158 H58        27.6332  -16.1510    0.0000 H         1 <0>        0.00000
    159 H59        26.1894  -16.1510    0.0000 H         1 <0>        0.00000
    160 H60        25.4750  -15.7385    0.0000 H         1 <0>        0.00000
    161 H61        24.0460  -15.7385    0.0000 H         1 <0>        0.00000
    162 H62        23.3712  -12.9747    0.0000 H         1 <0>        0.00000
    163 H63        23.3712  -12.9747    0.0000 H         1 <0>        0.00000
    164 H64        26.9451  -10.0872    0.0000 H         1 <0>        0.00000
    165 H65        26.9451  -10.0872    0.0000 H         1 <0>        0.00000
    166 H66        26.9451   -9.2621    0.0000 H         1 <0>        0.00000
    167 H67        26.9451   -9.2621    0.0000 H         1 <0>        0.00000
    168 H68        26.2307   -8.8496    0.0000 H         1 <0>        0.00000
    169 H69        26.2307   -8.8496    0.0000 H         1 <0>        0.00000
    170 H70        29.0490  -11.3247    0.0000 H         1 <0>        0.00000
    171 H71        29.7535  -11.7315    0.0000 H         1 <0>        0.00000
    172 H72        29.7535  -11.7315    0.0000 H         1 <0>        0.00000
    173 H73        29.7535  -11.7315    0.0000 H         1 <0>        0.00000
    174 H74        29.0490  -10.4998    0.0000 H         1 <0>        0.00000
    175 H75        29.0490  -10.4998    0.0000 H         1 <0>        0.00000
    176 H76        29.7635  -10.0872    0.0000 H         1 <0>        0.00000
    177 H77        29.7635  -10.0872    0.0000 H         1 <0>        0.00000
    178 H78        29.7635  -10.0872    0.0000 H         1 <0>        0.00000
    179 H79        29.7915  -14.9135    0.0000 H         1 <0>        0.00000
    180 H80        29.7915  -14.9135    0.0000 H         1 <0>        0.00000
    181 H81        31.2315  -14.9200    0.0000 H         1 <0>        0.00000
    182 H82        31.9460  -14.5076    0.0000 H         1 <0>        0.00000
    183 H83        31.9461  -13.6826    0.0000 H         1 <0>        0.00000
    184 H84        31.2206  -13.2636    0.0000 H         1 <0>        0.00000
    185 H85        30.5061  -13.6759    0.0000 H         1 <0>        0.00000
    186 H86        27.6332  -16.9760    0.0000 H         1 <0>        0.00000
    187 H87        27.6332  -16.9760    0.0000 H         1 <0>        0.00000
    188 H88        29.2393  -18.3788    0.0000 H         1 <0>        0.00000
    189 H89        29.6511  -17.6656    0.0000 H         1 <0>        0.00000
    190 H90        29.1000  -17.0536    0.0000 H         1 <0>        0.00000
    191 H91        23.3315  -16.1510    0.0000 H         1 <0>        0.00000
    192 H92        22.6170  -14.9135    0.0000 H         1 <0>        0.00000
    193 H93        23.3315  -16.9760    0.0000 H         1 <0>        0.00000
    194 H94        23.3315  -16.9760    0.0000 H         1 <0>        0.00000
    195 H95        21.9025  -16.9760    0.0000 H         1 <0>        0.00000
    196 H96        21.9025  -16.9760    0.0000 H         1 <0>        0.00000
    197 H97        23.3712  -13.7997    0.0000 H         1 <0>        0.00000
    198 H98        23.3712  -13.7997    0.0000 H         1 <0>        0.00000
    199 H99        25.4750  -14.5835    0.0000 H         1 <0>        0.00000
    200 H100       25.4750  -14.5835    0.0000 H         1 <0>        0.00000
    201 H101       22.6566  -14.2122    0.0000 H         1 <0>        0.00000
    202 H102       22.6566  -14.2122    0.0000 H         1 <0>        0.00000
    203 H103       24.7605  -13.3460    0.0000 H         1 <0>        0.00000
@<TRIPOS>BOND
     1    1    2 1
     2    2    3 1
     3    3    4 1
     4    4    5 2
     5    1    5 1
     6    5    6 1
     7    6    7 1
     8    3    8 1
     9    8    9 am
    10    9   10 1
    11   10   11 1
    12   11   12 am
    13   12   13 1
    14   13   14 1
    15   14   15 am
    16   15   16 1
    17   16   17 1
    18   17   18 am
    19   18   19 1
    20   19   20 1
    21   20   21 am
    22   21   22 1
    23   22   23 1
    24   23   24 am
    25    6   25 1
    26   25   26 1
    27   25   27 1
    28   27   28 1
    29    8   29 2
    30   11   30 2
    31   14   31 2
    32   17   32 2
    33   20   33 2
    34   23   34 2
    35   10   35 1
    36   35   36 1
    37   36   37 1
    38   36   38 1
    39   13   39 1
    40   39   40 1
    41   40   41 1
    42   41   42 1
    43   41   43 2
    44   16   44 1
    45   44   45 1
    46   44   46 1
    47   45   47 1
    48   19   48 1
    49   22   49 1
    50   24   50 1
    51   50   51 1
    52   51   52 2
    53   51   53 am
    54   53   54 1
    55   54   55 1
    56   55   56 am
    57   55   57 2
    58   56   58 1
    59   58   59 1
    60   59   60 am
    61   59   61 2
    62   60   62 1
    63   62   63 1
    64   63   64 am
    65   63   65 2
    66   48   66 1
    67   49   67 1
    68   67   68 1
    69   68   69 1
    70   50   70 1
    71   70   71 1
    72   70   72 1
    73   72   73 1
    74   54   74 1
    75   74   75 1
    76   75   76 ar
    77   76   77 ar
    78   77   78 ar
    79   78   79 ar
    80   79   80 ar
    81   75   80 ar
    82   58   81 1
    83   81   82 1
    84   82   83 1
    85   83   84 2
    86   84   85 1
    87   85   86 1
    88   82   86 2
    89   64   87 1
    90   87   88 1
    91   88   89 am
    92   88   90 2
    93   87   91 1
    94   91   92 1
    95   92   93 2
    96   92   94 am
    97   66   95 1
    98   62   96 1
    99   95   97 1
   100   89   97 1
   101   96   98 1
   102   98   99 2
   103   98  100 1
   104    2  101 1
   105    2  102 1
   106    3  103 1
   107    6  104 1
   108    7  105 1
   109    7  106 1
   110    9  107 1
   111   10  108 1
   112   12  109 1
   113   13  110 1
   114   15  111 1
   115   16  112 1
   116   18  113 1
   117   19  114 1
   118   21  115 1
   119   22  116 1
   120   24  117 1
   121   25  118 1
   122   26  119 1
   123   26  120 1
   124   26  121 1
   125   27  122 1
   126   27  123 1
   127   28  124 1
   128   28  125 1
   129   28  126 1
   130   35  127 1
   131   35  128 1
   132   36  129 1
   133   37  130 1
   134   37  131 1
   135   37  132 1
   136   38  133 1
   137   38  134 1
   138   38  135 1
   139   39  136 1
   140   39  137 1
   141   40  138 1
   142   40  139 1
   143   42  140 1
   144   44  141 1
   145   45  142 1
   146   45  143 1
   147   46  144 1
   148   46  145 1
   149   46  146 1
   150   47  147 1
   151   47  148 1
   152   47  149 1
   153   48  150 1
   154   48  151 1
   155   49  152 1
   156   49  153 1
   157   50  154 1
   158   53  155 1
   159   54  156 1
   160   56  157 1
   161   58  158 1
   162   60  159 1
   163   62  160 1
   164   64  161 1
   165   66  162 1
   166   66  163 1
   167   67  164 1
   168   67  165 1
   169   68  166 1
   170   68  167 1
   171   69  168 1
   172   69  169 1
   173   70  170 1
   174   71  171 1
   175   71  172 1
   176   71  173 1
   177   72  174 1
   178   72  175 1
   179   73  176 1
   180   73  177 1
   181   73  178 1
   182   74  179 1
   183   74  180 1
   184   76  181 1
   185   77  182 1
   186   78  183 1
   187   79  184 1
   188   80  185 1
   189   81  186 1
   190   81  187 1
   191   84  188 1
   192   85  189 1
   193   86  190 1
   194   87  191 1
   195   89  192 1
   196   91  193 1
   197   91  194 1
   198   94  195 1
   199   94  196 1
   200   95  197 1
   201   95  198 1
   202   96  199 1
   203   96  200 1
   204   97  201 1
   205   97  202 1
   206  100  203 1
@<TRIPOS>SUBSTRUCTURE
     1 <0>         1 GROUP 0 A     ****
@<TRIPOS>MOLECULE
*****
   58    60     1     0     0
SMALL
NO_CHARGES

@<TRIPOS>ATOM
      1 O1          0.0000   -4.9500    0.0000 O.2       1 <0>        0.00000
      2 C1         -0.7145   -5.3625    0.0000 C.2       1 <0>        0.00000
      3 O2         -1.4289   -4.9500    0.0000 O.3       1 <0>        0.00000
      4 C2         -0.7145   -6.1875    0.0000 C.3       1 <0>        0.00000
      5 N1         -1.4289   -6.6000    0.0000 N.am      1 <0>        0.00000
      6 C3         -2.1434   -6.1875    0.0000 C.2       1 <0>        0.00000
      7 O3         -2.1434   -5.3625    0.0000 O.2       1 <0>        0.00000
      8 C4         -2.8579   -6.6000    0.0000 C.ar      1 <0>        0.00000
      9 C5         -2.8579   -7.4250    0.0000 C.ar      1 <0>        0.00000
     10 C6         -3.5724   -7.8375    0.0000 C.ar      1 <0>        0.00000
     11 C7         -4.2868   -7.4250    0.0000 C.ar      1 <0>        0.00000
     12 C8         -4.2868   -6.6000    0.0000 C.ar      1 <0>        0.00000
     13 C9         -3.5724   -6.1875    0.0000 C.ar      1 <0>        0.00000
     14 C10        -5.0013   -7.8375    0.0000 C.3       1 <0>        0.00000
     15 C11        -5.0013   -8.6625    0.0000 C.3       1 <0>        0.00000
     16 C12        -5.7158   -9.0750    0.0000 C.1       1 <0>        0.00000
     17 C13        -6.4302   -9.4875    0.0000 C.1       1 <0>        0.00000
     18 C14        -5.7158   -7.4250    0.0000 C.3       1 <0>        0.00000
     19 C15        -6.4302   -7.8375    0.0000 C.ar      1 <0>        0.00000
     20 N2         -7.1447   -7.4250    0.0000 N.ar      1 <0>        0.00000
     21 C16        -7.8592   -7.8375    0.0000 C.ar      1 <0>        0.00000
     22 C17        -7.8592   -8.6625    0.0000 C.ar      1 <0>        0.00000
     23 N3         -7.1447   -9.0750    0.0000 N.ar      1 <0>        0.00000
     24 C18        -6.4302   -8.6625    0.0000 C.ar      1 <0>        0.00000
     25 N4         -8.5737   -9.0750    0.0000 N.ar      1 <0>        0.00000
     26 C19        -9.2881   -8.6625    0.0000 C.ar      1 <0>        0.00000
     27 N5         -9.2881   -7.8375    0.0000 N.ar      1 <0>        0.00000
     28 C20        -8.5737   -7.4250    0.0000 C.ar      1 <0>        0.00000
     29 N6         -8.5737   -6.6000    0.0000 N.pl3     1 <0>        0.00000
     30 N7        -10.0026   -9.0750    0.0000 N.pl3     1 <0>        0.00000
     31 C21         0.0000   -6.6000    0.0000 C.3       1 <0>        0.00000
     32 C22         0.7145   -6.1875    0.0000 C.3       1 <0>        0.00000
     33 C23         1.4289   -6.6000    0.0000 C.2       1 <0>        0.00000
     34 O4          2.1434   -6.1875    0.0000 O.2       1 <0>        0.00000
     35 O5          1.4289   -7.4250    0.0000 O.3       1 <0>        0.00000
     36 H1         -1.4289   -4.9500    0.0000 H         1 <0>        0.00000
     37 H2         -0.7145   -6.1875    0.0000 H         1 <0>        0.00000
     38 H3         -1.4289   -6.6000    0.0000 H         1 <0>        0.00000
     39 H4         -2.8579   -7.4250    0.0000 H         1 <0>        0.00000
     40 H5         -3.5724   -7.8375    0.0000 H         1 <0>        0.00000
     41 H6         -4.2868   -6.6000    0.0000 H         1 <0>        0.00000
     42 H7         -3.5724   -6.1875    0.0000 H         1 <0>        0.00000
     43 H8         -5.0013   -7.8375    0.0000 H         1 <0>        0.00000
     44 H9         -5.0013   -8.6625    0.0000 H         1 <0>        0.00000
     45 H10        -5.0013   -8.6625    0.0000 H         1 <0>        0.00000
     46 H11        -6.4302   -9.4875    0.0000 H         1 <0>        0.00000
     47 H12        -5.7158   -7.4250    0.0000 H         1 <0>        0.00000
     48 H13        -5.7158   -7.4250    0.0000 H         1 <0>        0.00000
     49 H14        -6.4302   -8.6625    0.0000 H         1 <0>        0.00000
     50 H15        -8.5737   -6.6000    0.0000 H         1 <0>        0.00000
     51 H16        -8.5737   -6.6000    0.0000 H         1 <0>        0.00000
     52 H17       -10.0026   -9.0750    0.0000 H         1 <0>        0.00000
     53 H18       -10.0026   -9.0750    0.0000 H         1 <0>        0.00000
     54 H19         0.0000   -6.6000    0.0000 H         1 <0>        0.00000
     55 H20         0.0000   -6.6000    0.0000 H         1 <0>        0.00000
     56 H21         0.7145   -6.1875    0.0000 H         1 <0>        0.00000
     57 H22         0.7145   -6.1875    0.0000 H         1 <0>        0.00000
     58 H23         1.4289   -7.4250    0.0000 H         1 <0>        0.00000
@<TRIPOS>BOND
     1    1    2 2
     2    2    3 1
     3    2    4 1
     4    4    5 1
     5    5    6 am
     6    6    7 2
     7    6    8 1
     8    8    9 ar
     9    9   10 ar
    10   10   11 ar
    11   11   12 ar
    12   12   13 ar
    13    8   13 ar
    14   11   14 1
    15   14   15 1
    16   15   16 1
    17   16   17 3
    18   14   18 1
    19   18   19 1
    20   19   20 ar
    21   20   21 ar
    22   21   22 ar
    23   22   23 ar
    24   23   24 ar
    25   19   24 ar
    26   22   25 ar
    27   25   26 ar
    28   26   27 ar
    29   27   28 ar
    30   21   28 ar
    31   28   29 1
    32   26   30 1
    33    4   31 1
    34   31   32 1
    35   32   33 1
    36   33   34 2
    37   33   35 1
    38    3   36 1
    39    4   37 1
    40    5   38 1
    41    9   39 1
    42   10   40 1
    43   12   41 1
    44   13   42 1
    45   14   43 1
    46   15   44 1
    47   15   45 1
    48   17   46 1
    49   18   47 1
    50   18   48 1
    51   24   49 1
    52   29   50 1
    53   29   51 1
    54   30   52 1
    55   30   53 1
    56   31   54 1
    57   31   55 1
    58   32   56 1
    59   32   57 1
    60   35   58 1
@<TRIPOS>SUBSTRUCTURE
     1 <0>         1 GROUP 0 A     ****
@<TRIPOS>MOLECULE
*****
   43    43     1     0     0
SMALL
NO_CHARGES

@<TRIPOS>ATOM
      1 O1         -1.4289    2.4750    0.0000 O.3       1 <0>        0.00000
      2 N1         -0.7145    2.8875    0.0000 N.pl3     1 <0>        0.00000
      3 O2         -0.7145    3.7125    0.0000 O.2       1 <0>        0.00000
      4 C1          0.0000    2.4750    0.0000 C.ar      1 <0>        0.00000
      5 C2          0.7145    2.8875    0.0000 C.ar      1 <0>        0.00000
      6 C3          1.4289    2.4750    0.0000 C.ar      1 <0>        0.00000
      7 C4          1.4289    1.6500    0.0000 C.ar      1 <0>        0.00000
      8 C5          0.7145    1.2375    0.0000 C.ar      1 <0>        0.00000
      9 C6          0.0000    1.6500    0.0000 C.ar      1 <0>        0.00000
     10 N2         -0.7145    1.2375    0.0000 N.pl3     1 <0>        0.00000
     11 C7         -1.4289    1.6500    0.0000 C.3       1 <0>        0.00000
     12 C8         -2.1434    1.2375    0.0000 C.3       1 <0>        0.00000
     13 Br1        -2.8579    1.6500    0.0000 Br        1 <0>        0.00000
     14 C9         -0.7145    0.4125    0.0000 C.3       1 <0>        0.00000
     15 C10         0.0000    0.0000    0.0000 C.3       1 <0>        0.00000
     16 Br2         0.0000   -0.8250    0.0000 Br        1 <0>        0.00000
     17 C11         2.1434    1.2375    0.0000 C.2       1 <0>        0.00000
     18 O3          2.1434    0.4125    0.0000 O.2       1 <0>        0.00000
     19 N3          2.8579    1.6500    0.0000 N.am      1 <0>        0.00000
     20 C12         3.5724    1.2375    0.0000 C.3       1 <0>        0.00000
     21 C13         4.2868    1.6500    0.0000 C.2       1 <0>        0.00000
     22 O4          4.2868    2.4750    0.0000 O.2       1 <0>        0.00000
     23 C14         5.0013    1.2375    0.0000 C.2       1 <0>        0.00000
     24 O5          5.7158    1.6500    0.0000 O.2       1 <0>        0.00000
     25 N4          2.1434    2.8875    0.0000 N.pl3     1 <0>        0.00000
     26 O6          2.8579    2.4750    0.0000 O.3       1 <0>        0.00000
     27 O7          2.1434    3.7125    0.0000 O.2       1 <0>        0.00000
     28 H1         -1.4289    2.4750    0.0000 H         1 <0>        0.00000
     29 H2          0.7145    2.8875    0.0000 H         1 <0>        0.00000
     30 H3          0.7145    1.2375    0.0000 H         1 <0>        0.00000
     31 H4         -1.4289    1.6500    0.0000 H         1 <0>        0.00000
     32 H5         -1.4289    1.6500    0.0000 H         1 <0>        0.00000
     33 H6         -2.1434    1.2375    0.0000 H         1 <0>        0.00000
     34 H7         -2.1434    1.2375    0.0000 H         1 <0>        0.00000
     35 H8         -0.7145    0.4125    0.0000 H         1 <0>        0.00000
     36 H9         -0.7145    0.4125    0.0000 H         1 <0>        0.00000
     37 H10         0.0000    0.0000    0.0000 H         1 <0>        0.00000
     38 H11         0.0000    0.0000    0.0000 H         1 <0>        0.00000
     39 H12         2.8579    1.6500    0.0000 H         1 <0>        0.00000
     40 H13         3.5724    1.2375    0.0000 H         1 <0>        0.00000
     41 H14         3.5724    1.2375    0.0000 H         1 <0>        0.00000
     42 H15         5.0013    1.2375    0.0000 H         1 <0>        0.00000
     43 H16         2.8579    2.4750    0.0000 H         1 <0>        0.00000
@<TRIPOS>BOND
     1    1    2 1
     2    2    3 2
     3    2    4 1
     4    4    5 ar
     5    5    6 ar
     6    6    7 ar
     7    7    8 ar
     8    8    9 ar
     9    4    9 ar
    10    9   10 1
    11   10   11 1
    12   11   12 1
    13   12   13 1
    14   10   14 1
    15   14   15 1
    16   15   16 1
    17    7   17 1
    18   17   18 2
    19   17   19 am
    20   19   20 1
    21   20   21 1
    22   21   22 2
    23   21   23 1
    24   23   24 2
    25    6   25 1
    26   25   26 1
    27   25   27 2
    28    1   28 1
    29    5   29 1
    30    8   30 1
    31   11   31 1
    32   11   32 1
    33   12   33 1
    34   12   34 1
    35   14   35 1
    36   14   36 1
    37   15   37 1
    38   15   38 1
    39   19   39 1
    40   20   40 1
    41   20   41 1
    42   23   42 1
    43   26   43 1
@<TRIPOS>SUBSTRUCTURE
     1 <0>         1 GROUP 0 A     ****
@<TRIPOS>MOLECULE
*****
   64    63     1     0     0
SMALL
NO_CHARGES

@<TRIPOS>ATOM
      1 C1          5.9961   -4.2868    0.0000 C.3       1 <0>        0.00000
      2 C2          6.7105   -3.8743    0.0000 C.3       1 <0>        0.00000
      3 C3          7.4250   -4.2868    0.0000 C.3       1 <0>        0.00000
      4 C4          8.1395   -3.8743    0.0000 C.3       1 <0>        0.00000
      5 C5          8.8539   -4.2868    0.0000 C.2       1 <0>        0.00000
      6 O1          8.8539   -5.1118    0.0000 O.2       1 <0>        0.00000
      7 O2          9.5684   -3.8743    0.0000 O.3       1 <0>        0.00000
      8 C6         10.2829   -4.2868    0.0000 C.3       1 <0>        0.00000
      9 C7         10.9974   -3.8743    0.0000 C.3       1 <0>        0.00000
     10 C8         11.7118   -4.2868    0.0000 C.3       1 <0>        0.00000
     11 O3         12.4263   -3.8743    0.0000 O.3       1 <0>        0.00000
     12 P1         13.1408   -4.2868    0.0000 P.3       1 <0>        0.00000
     13 S1         12.7283   -5.0013    0.0000 S.3       1 <0>        0.00000
     14 S2         13.5533   -3.5724    0.0000 S.2       1 <0>        0.00000
     15 O4         13.8552   -4.6993    0.0000 O.3       1 <0>        0.00000
     16 C9         14.5697   -4.2868    0.0000 C.3       1 <0>        0.00000
     17 C10        15.2842   -4.6993    0.0000 C.3       1 <0>        0.00000
     18 N1         15.9987   -4.2868    0.0000 N.4       1 <0>        0.00000
     19 C11        16.7131   -3.8743    0.0000 C.3       1 <0>        0.00000
     20 C12        16.4112   -5.0013    0.0000 C.3       1 <0>        0.00000
     21 C13        15.5862   -3.5724    0.0000 C.3       1 <0>        0.00000
     22 O5         10.9974   -3.0493    0.0000 O.3       1 <0>        0.00000
     23 C14        11.7118   -2.6368    0.0000 C.2       1 <0>        0.00000
     24 O6         12.4263   -3.0493    0.0000 O.2       1 <0>        0.00000
     25 C15        11.7118   -1.8118    0.0000 C.3       1 <0>        0.00000
     26 C16        12.4263   -1.3993    0.0000 C.3       1 <0>        0.00000
     27 C17        12.4263   -0.5743    0.0000 C.3       1 <0>        0.00000
     28 C18        13.1408   -0.1618    0.0000 C.3       1 <0>        0.00000
     29 H1          5.9961   -4.2868    0.0000 H         1 <0>        0.00000
     30 H2          5.9961   -4.2868    0.0000 H         1 <0>        0.00000
     31 H3          5.9961   -4.2868    0.0000 H         1 <0>        0.00000
     32 H4          6.7105   -3.8743    0.0000 H         1 <0>        0.00000
     33 H5          6.7105   -3.8743    0.0000 H         1 <0>        0.00000
     34 H6          7.4250   -4.2868    0.0000 H         1 <0>        0.00000
     35 H7          7.4250   -4.2868    0.0000 H         1 <0>        0.00000
     36 H8          8.1395   -3.8743    0.0000 H         1 <0>        0.00000
     37 H9          8.1395   -3.8743    0.0000 H         1 <0>        0.00000
     38 H10        10.2829   -4.2868    0.0000 H         1 <0>        0.00000
     39 H11        10.2829   -4.2868    0.0000 H         1 <0>        0.00000
     40 H12        10.9974   -3.8743    0.0000 H         1 <0>        0.00000
     41 H13        11.7118   -4.2868    0.0000 H         1 <0>        0.00000
     42 H14        11.7118   -4.2868    0.0000 H         1 <0>        0.00000
     43 H15        14.5697   -4.2868    0.0000 H         1 <0>        0.00000
     44 H16        14.5697   -4.2868    0.0000 H         1 <0>        0.00000
     45 H17        15.2842   -4.6993    0.0000 H         1 <0>        0.00000
     46 H18        15.2842   -4.6993    0.0000 H         1 <0>        0.00000
     47 H19        16.7131   -3.8743    0.0000 H         1 <0>        0.00000
     48 H20        16.7131   -3.8743    0.0000 H         1 <0>        0.00000
     49 H21        16.7131   -3.8743    0.0000 H         1 <0>        0.00000
     50 H22        16.4112   -5.0013    0.0000 H         1 <0>        0.00000
     51 H23        16.4112   -5.0013    0.0000 H         1 <0>        0.00000
     52 H24        16.4112   -5.0013    0.0000 H         1 <0>        0.00000
     53 H25        15.5862   -3.5724    0.0000 H         1 <0>        0.00000
     54 H26        15.5862   -3.5724    0.0000 H         1 <0>        0.00000
     55 H27        15.5862   -3.5724    0.0000 H         1 <0>        0.00000
     56 H28        11.7118   -1.8118    0.0000 H         1 <0>        0.00000
     57 H29        11.7118   -1.8118    0.0000 H         1 <0>        0.00000
     58 H30        12.4263   -1.3993    0.0000 H         1 <0>        0.00000
     59 H31        12.4263   -1.3993    0.0000 H         1 <0>        0.00000
     60 H32        12.4263   -0.5743    0.0000 H         1 <0>        0.00000
     61 H33        12.4263   -0.5743    0.0000 H         1 <0>        0.00000
     62 H34        13.1408   -0.1618    0.0000 H         1 <0>        0.00000
     63 H35        13.1408   -0.1618    0.0000 H         1 <0>        0.00000
     64 H36        13.1408   -0.1618    0.0000 H         1 <0>        0.00000
@<TRIPOS>BOND
     1    1    2 1
     2    2    3 1
     3    3    4 1
     4    4    5 1
     5    5    6 2
     6    5    7 1
     7    7    8 1
     8    8    9 1
     9    9   10 1
    10   10   11 1
    11   11   12 1
    12   12   13 1
    13   12   14 2
    14   12   15 1
    15   15   16 1
    16   16   17 1
    17   17   18 1
    18   18   19 1
    19   18   20 1
    20   18   21 1
    21    9   22 1
    22   22   23 1
    23   23   24 2
    24   23   25 1
    25   25   26 1
    26   26   27 1
    27   27   28 1
    28    1   29 1
    29    1   30 1
    30    1   31 1
    31    2   32 1
    32    2   33 1
    33    3   34 1
    34    3   35 1
    35    4   36 1
    36    4   37 1
    37    8   38 1
    38    8   39 1
    39    9   40 1
    40   10   41 1
    41   10   42 1
    42   16   43 1
    43   16   44 1
    44   17   45 1
    45   17   46 1
    46   19   47 1
    47   19   48 1
    48   19   49 1
    49   20   50 1
    50   20   51 1
    51   20   52 1
    52   21   53 1
    53   21   54 1
    54   21   55 1
    55   25   56 1
    56   25   57 1
    57   26   58 1
    58   26   59 1
    59   27   60 1
    60   27   61 1
    61   28   62 1
    62   28   63 1
    63   28   64 1
@<TRIPOS>SUBSTRUCTURE
     1 <0>         1 GROUP 0 A     ****
@<TRIPOS>MOLECULE
1168
   35    35     1     0     0
SMALL
NO_CHARGES

@<TRIPOS>ATOM
      1 O1          2.3645    2.0625    0.0000 O.2       1 <0>        0.00000
      2 N1          3.7935    2.0625    0.0000 N.am      1 <0>        0.00000
      3 N2          2.3645   -2.0625    0.0000 N.3       1 <0>        0.00000
      4 N3          2.3645   -2.8876    0.0000 N.3       1 <0>        0.00000
      5 C1          3.7935    2.8876    0.0000 C.3       1 <0>        0.00000
      6 C2          3.0791   -0.8250    0.0000 C.ar      1 <0>        0.00000
      7 C3          3.0791    0.8250    0.0000 C.ar      1 <0>        0.00000
      8 C4          3.0791    1.6500    0.0000 C.2       1 <0>        0.00000
      9 C5          3.0791   -1.6500    0.0000 C.3       1 <0>        0.00000
     10 C6          4.5080    3.3001    0.0000 C.3       1 <0>        0.00000
     11 C7          3.0791    3.3001    0.0000 C.3       1 <0>        0.00000
     12 C8          2.3645   -0.4125    0.0000 C.ar      1 <0>        0.00000
     13 C9          3.7935   -0.4125    0.0000 C.ar      1 <0>        0.00000
     14 C10         2.3645    0.4125    0.0000 C.ar      1 <0>        0.00000
     15 C11         3.7935    0.4125    0.0000 C.ar      1 <0>        0.00000
     16 C12         1.6500   -3.3001    0.0000 C.3       1 <0>        0.00000
     17 H1          3.7935    2.0625    0.0000 H         1 <0>        0.00000
     18 H2          2.3645   -2.0625    0.0000 H         1 <0>        0.00000
     19 H3          2.3645   -2.8876    0.0000 H         1 <0>        0.00000
     20 H4          3.7935    2.8876    0.0000 H         1 <0>        0.00000
     21 H5          3.0791   -1.6500    0.0000 H         1 <0>        0.00000
     22 H6          3.0791   -1.6500    0.0000 H         1 <0>        0.00000
     23 H7          4.5080    3.3001    0.0000 H         1 <0>        0.00000
     24 H8          4.5080    3.3001    0.0000 H         1 <0>        0.00000
     25 H9          4.5080    3.3001    0.0000 H         1 <0>        0.00000
     26 H10         3.0791    3.3001    0.0000 H         1 <0>        0.00000
     27 H11         3.0791    3.3001    0.0000 H         1 <0>        0.00000
     28 H12         3.0791    3.3001    0.0000 H         1 <0>        0.00000
     29 H13         2.3645   -0.4125    0.0000 H         1 <0>        0.00000
     30 H14         3.7935   -0.4125    0.0000 H         1 <0>        0.00000
     31 H15         2.3645    0.4125    0.0000 H         1 <0>        0.00000
     32 H16         3.7935    0.4125    0.0000 H         1 <0>        0.00000
     33 H17         1.6500   -3.3001    0.0000 H         1 <0>        0.00000
     34 H18         1.6500   -3.3001    0.0000 H         1 <0>        0.00000
     35 H19         1.6500   -3.3001    0.0000 H         1 <0>        0.00000
@<TRIPOS>BOND
     1    1    8 2
     2    2    5 1
     3    2    8 am
     4    3    4 1
     5    3    9 1
     6    4   16 1
     7    5   10 1
     8    5   11 1
     9    6    9 1
    10    6   12 ar
    11    6   13 ar
    12    7    8 1
    13    7   14 ar
    14    7   15 ar
    15   12   14 ar
    16   13   15 ar
    17    2   17 1
    18    3   18 1
    19    4   19 1
    20    5   20 1
    21    9   21 1
    22    9   22 1
    23   10   23 1
    24   10   24 1
    25   10   25 1
    26   11   26 1
    27   11   27 1
    28   11   28 1
    29   12   29 1
    30   13   30 1
    31   14   31 1
    32   15   32 1
    33   16   33 1
    34   16   34 1
    35   16   35 1
@<TRIPOS>SUBSTRUCTURE
     1 <0>         1 GROUP 0 A     ****
@<TRIPOS>MOLECULE
FR0
   40    43     1     0     0
SMALL
NO_CHARGES

@<TRIPOS>ATOM
      1 N1          2.2291    0.4069    0.0000 N.ar      1 <0>        0.00000
      2 C1          3.0137    0.6619    0.0000 C.ar      1 <0>        0.00000
      3 C2          3.0137    1.4869    0.0000 C.ar      1 <0>        0.00000
      4 N2          2.2291    1.7418    0.0000 N.pl3     1 <0>        0.00000
      5 C3          1.7442    1.0744    0.0000 C.ar      1 <0>        0.00000
      6 C4          3.7282    0.2494    0.0000 C.ar      1 <0>        0.00000
      7 C5          4.4427    0.6619    0.0000 C.ar      1 <0>        0.00000
      8 C6          4.4427    1.4869    0.0000 C.ar      1 <0>        0.00000
      9 C7          3.7282    1.8994    0.0000 C.ar      1 <0>        0.00000
     10 N3          0.9192    1.0744    0.0000 N.pl3     1 <0>        0.00000
     11 C8          0.5067    0.3599    0.0000 C.3       1 <0>        0.00000
     12 C9         -0.3183    0.3599    0.0000 C.ar      1 <0>        0.00000
     13 S1         -0.8032   -0.3075    0.0000 S.3       1 <0>        0.00000
     14 C10        -1.5879   -0.0526    0.0000 C.ar      1 <0>        0.00000
     15 C11        -1.5879    0.7724    0.0000 C.ar      1 <0>        0.00000
     16 C12        -0.8032    1.0273    0.0000 C.ar      1 <0>        0.00000
     17 C13        -2.2553   -0.5375    0.0000 C.ar      1 <0>        0.00000
     18 N4         -2.2553   -1.3625    0.0000 N.ar      1 <0>        0.00000
     19 C14        -3.0399   -1.6175    0.0000 C.ar      1 <0>        0.00000
     20 S2         -3.5248   -0.9500    0.0000 S.3       1 <0>        0.00000
     21 C15        -3.0399   -0.2826    0.0000 C.ar      1 <0>        0.00000
     22 N5         -3.2949   -2.4021    0.0000 N.2       1 <0>        0.00000
     23 C16        -4.1018   -2.5736    0.0000 C.2       1 <0>        0.00000
     24 N6         -4.3568   -3.3582    0.0000 N.pl3     1 <0>        0.00000
     25 N7         -4.6539   -1.9605    0.0000 N.pl3     1 <0>        0.00000
     26 H1          2.2291    1.7418    0.0000 H         1 <0>        0.00000
     27 H2          3.7282    0.2494    0.0000 H         1 <0>        0.00000
     28 H3          4.4427    0.6619    0.0000 H         1 <0>        0.00000
     29 H4          4.4427    1.4869    0.0000 H         1 <0>        0.00000
     30 H5          3.7282    1.8994    0.0000 H         1 <0>        0.00000
     31 H6          0.9192    1.0744    0.0000 H         1 <0>        0.00000
     32 H7          0.5067    0.3599    0.0000 H         1 <0>        0.00000
     33 H8          0.5067    0.3599    0.0000 H         1 <0>        0.00000
     34 H9         -1.5879    0.7724    0.0000 H         1 <0>        0.00000
     35 H10        -0.8032    1.0273    0.0000 H         1 <0>        0.00000
     36 H11        -3.0399   -0.2826    0.0000 H         1 <0>        0.00000
     37 H12        -4.3568   -3.3582    0.0000 H         1 <0>        0.00000
     38 H13        -4.3568   -3.3582    0.0000 H         1 <0>        0.00000
     39 H14        -4.6539   -1.9605    0.0000 H         1 <0>        0.00000
     40 H15        -4.6539   -1.9605    0.0000 H         1 <0>        0.00000
@<TRIPOS>BOND
     1    1    2 1
     2    1    5 2
     3    2    3 ar
     4    2    6 ar
     5    3    4 1
     6    3    9 ar
     7    4    5 1
     8    5   10 1
     9    6    7 ar
    10    7    8 ar
    11    8    9 ar
    12   10   11 1
    13   11   12 1
    14   12   13 1
    15   12   16 2
    16   13   14 1
    17   14   15 2
    18   14   17 1
    19   15   16 1
    20   17   18 1
    21   17   21 2
    22   18   19 2
    23   19   20 1
    24   19   22 1
    25   20   21 1
    26   22   23 2
    27   23   24 1
    28   23   25 1
    29    4   26 1
    30    6   27 1
    31    7   28 1
    32    8   29 1
    33    9   30 1
    34   10   31 1
    35   11   32 1
    36   11   33 1
    37   15   34 1
    38   16   35 1
    39   21   36 1
    40   24   37 1
    41   24   38 1
    42   25   39 1
    43   25   40 1
@<TRIPOS>SUBSTRUCTURE
     1 <0>         1 GROUP 0 A     ****
@<TRIPOS>MOLECULE
TPD
   29    30     1     0     0
SMALL
NO_CHARGES

@<TRIPOS>ATOM
      1 C1         -0.4288    2.3036    0.0000 C.ar      1 <0>        0.00000
      2 C2          0.6981   -1.0284    0.0000 C.3       1 <0>        0.00000
      3 C3          0.6981   -1.8534    0.0000 C.ar      1 <0>        0.00000
      4 C4          1.3656   -2.3383    0.0000 C.ar      1 <0>        0.00000
      5 C5          1.1106   -3.1230    0.0000 C.ar      1 <0>        0.00000
      6 C6          0.2856   -3.1230    0.0000 C.ar      1 <0>        0.00000
      7 O1         -1.3987    3.6385    0.0000 O.2       1 <0>        0.00000
      8 O2         -0.2463    3.4560    0.0000 O.2       1 <0>        0.00000
      9 N1         -1.5812    2.4861    0.0000 N.pl3     1 <0>        0.00000
     10 S1         -0.9138    2.9711    0.0000 S.o2      1 <0>        0.00000
     11 C7          0.3962    2.3036    0.0000 C.ar      1 <0>        0.00000
     12 C8          0.6511    1.5190    0.0000 C.ar      1 <0>        0.00000
     13 C9         -0.0163    1.0341    0.0000 C.ar      1 <0>        0.00000
     14 S2         -0.6838    1.5190    0.0000 S.3       1 <0>        0.00000
     15 S3         -0.0163    0.2091    0.0000 S.o2      1 <0>        0.00000
     16 O3          0.8087    0.2091    0.0000 O.2       1 <0>        0.00000
     17 O4         -0.8413    0.2091    0.0000 O.2       1 <0>        0.00000
     18 N2         -0.0163   -0.6159    0.0000 N.pl3     1 <0>        0.00000
     19 S4          0.0307   -2.3383    0.0000 S.3       1 <0>        0.00000
     20 H1          0.6981   -1.0284    0.0000 H         1 <0>        0.00000
     21 H2          0.6981   -1.0284    0.0000 H         1 <0>        0.00000
     22 H3          1.3656   -2.3383    0.0000 H         1 <0>        0.00000
     23 H4          1.1106   -3.1230    0.0000 H         1 <0>        0.00000
     24 H5          0.2856   -3.1230    0.0000 H         1 <0>        0.00000
     25 H6         -1.5812    2.4861    0.0000 H         1 <0>        0.00000
     26 H7         -1.5812    2.4861    0.0000 H         1 <0>        0.00000
     27 H8          0.3962    2.3036    0.0000 H         1 <0>        0.00000
     28 H9          0.6511    1.5190    0.0000 H         1 <0>        0.00000
     29 H10        -0.0163   -0.6159    0.0000 H         1 <0>        0.00000
@<TRIPOS>BOND
     1    1   10 1
     2    1   11 2
     3    1   14 1
     4    2    3 1
     5    2   18 1
     6    3    4 2
     7    3   19 1
     8    4    5 1
     9    5    6 2
    10    6   19 1
    11    7   10 2
    12    8   10 2
    13    9   10 1
    14   11   12 1
    15   12   13 2
    16   13   14 1
    17   13   15 1
    18   15   16 2
    19   15   17 2
    20   15   18 1
    21    2   20 1
    22    2   21 1
    23    4   22 1
    24    5   23 1
    25    6   24 1
    26    9   25 1
    27    9   26 1
    28   11   27 1
    29   12   28 1
    30   18   29 1
@<TRIPOS>SUBSTRUCTURE
     1 <0>         1 GROUP 0 A     ****
@<TRIPOS>MOLECULE
*****
   56    60     1     0     0
SMALL
NO_CHARGES

@<TRIPOS>ATOM
      1 O1          0.2122    0.6611    0.0000 O.3       1 <0>        0.00000
      2 O2          0.0407   -0.1459    0.0000 O.3       1 <0>        0.00000
      3 C1          0.6538   -0.6979    0.0000 C.3       1 <0>        0.00000
      4 C2          0.0407   -1.2500    0.0000 C.3       1 <0>        0.00000
      5 C3         -0.7439   -0.9950    0.0000 C.ar      1 <0>        0.00000
      6 C4         -1.3570   -1.5471    0.0000 C.ar      1 <0>        0.00000
      7 C5         -2.1416   -1.2921    0.0000 C.ar      1 <0>        0.00000
      8 C6         -2.3132   -0.4852    0.0000 C.ar      1 <0>        0.00000
      9 I1         -3.0978   -0.2302    0.0000 I         1 <0>        0.00000
     10 C7         -1.7001    0.0669    0.0000 C.ar      1 <0>        0.00000
     11 C8         -0.9154   -0.1881    0.0000 C.ar      1 <0>        0.00000
     12 N1          1.1387   -0.0305    0.0000 N.2       1 <0>        0.00000
     13 C9          1.9233   -0.2854    0.0000 C.2       1 <0>        0.00000
     14 C10         2.6378    0.1271    0.0000 C.3       1 <0>        0.00000
     15 C11         2.6378    0.9521    0.0000 C.3       1 <0>        0.00000
     16 C12         3.3523    1.3646    0.0000 C.ar      1 <0>        0.00000
     17 C13         3.3523    2.1896    0.0000 C.ar      1 <0>        0.00000
     18 C14         4.0668    2.6021    0.0000 C.ar      1 <0>        0.00000
     19 C15         4.7812    2.1896    0.0000 C.ar      1 <0>        0.00000
     20 C16         4.7812    1.3646    0.0000 C.ar      1 <0>        0.00000
     21 C17         4.0668    0.9521    0.0000 C.ar      1 <0>        0.00000
     22 N2          3.3523   -0.2854    0.0000 N.pl3     1 <0>        0.00000
     23 C18         3.3523   -1.1104    0.0000 C.2       1 <0>        0.00000
     24 C19         2.6378   -1.5229    0.0000 C.2       1 <0>        0.00000
     25 N3          1.9233   -1.1104    0.0000 N.am      1 <0>        0.00000
     26 C20         1.1387   -1.3654    0.0000 C.2       1 <0>        0.00000
     27 O3          0.8838   -2.1500    0.0000 O.2       1 <0>        0.00000
     28 C21         4.0668   -1.5229    0.0000 C.ar      1 <0>        0.00000
     29 C22         4.7812   -1.1104    0.0000 C.ar      1 <0>        0.00000
     30 C23         5.4957   -1.5229    0.0000 C.ar      1 <0>        0.00000
     31 C24         5.4957   -2.3479    0.0000 C.ar      1 <0>        0.00000
     32 O4          6.2102   -2.7604    0.0000 O.3       1 <0>        0.00000
     33 C25         4.7812   -2.7604    0.0000 C.ar      1 <0>        0.00000
     34 C26         4.0668   -2.3479    0.0000 C.ar      1 <0>        0.00000
     35 H1          0.2122    0.6611    0.0000 H         1 <0>        0.00000
     36 H2          0.0407   -1.2500    0.0000 H         1 <0>        0.00000
     37 H3          0.0407   -1.2500    0.0000 H         1 <0>        0.00000
     38 H4         -1.3570   -1.5471    0.0000 H         1 <0>        0.00000
     39 H5         -2.1416   -1.2921    0.0000 H         1 <0>        0.00000
     40 H6         -1.7001    0.0669    0.0000 H         1 <0>        0.00000
     41 H7         -0.9154   -0.1881    0.0000 H         1 <0>        0.00000
     42 H8          2.6378    0.1271    0.0000 H         1 <0>        0.00000
     43 H9          2.6378    0.9521    0.0000 H         1 <0>        0.00000
     44 H10         2.6378    0.9521    0.0000 H         1 <0>        0.00000
     45 H11         3.3523    2.1896    0.0000 H         1 <0>        0.00000
     46 H12         4.0668    2.6021    0.0000 H         1 <0>        0.00000
     47 H13         4.7812    2.1896    0.0000 H         1 <0>        0.00000
     48 H14         4.7812    1.3646    0.0000 H         1 <0>        0.00000
     49 H15         4.0668    0.9521    0.0000 H         1 <0>        0.00000
     50 H16         3.3523   -0.2854    0.0000 H         1 <0>        0.00000
     51 H17         2.6378   -1.5229    0.0000 H         1 <0>        0.00000
     52 H18         4.7812   -1.1104    0.0000 H         1 <0>        0.00000
     53 H19         5.4957   -1.5229    0.0000 H         1 <0>        0.00000
     54 H20         6.2102   -2.7604    0.0000 H         1 <0>        0.00000
     55 H21         4.7812   -2.7604    0.0000 H         1 <0>        0.00000
     56 H22         4.0668   -2.3479    0.0000 H         1 <0>        0.00000
@<TRIPOS>BOND
     1    1    2 1
     2    2    3 1
     3    3    4 1
     4    4    5 1
     5    5    6 ar
     6    6    7 ar
     7    7    8 ar
     8    8    9 1
     9    8   10 ar
    10   10   11 ar
    11    5   11 ar
    12    3   12 1
    13   12   13 2
    14   13   14 1
    15   14   15 1
    16   15   16 1
    17   16   17 ar
    18   17   18 ar
    19   18   19 ar
    20   19   20 ar
    21   20   21 ar
    22   16   21 ar
    23   14   22 1
    24   22   23 1
    25   23   24 2
    26   24   25 1
    27   13   25 1
    28   25   26 am
    29    3   26 1
    30   26   27 2
    31   23   28 1
    32   28   29 ar
    33   29   30 ar
    34   30   31 ar
    35   31   32 1
    36   31   33 ar
    37   33   34 ar
    38   28   34 ar
    39    1   35 1
    40    4   36 1
    41    4   37 1
    42    6   38 1
    43    7   39 1
    44   10   40 1
    45   11   41 1
    46   14   42 1
    47   15   43 1
    48   15   44 1
    49   17   45 1
    50   18   46 1
    51   19   47 1
    52   20   48 1
    53   21   49 1
    54   22   50 1
    55   24   51 1
    56   29   52 1
    57   30   53 1
    58   32   54 1
    59   33   55 1
    60   34   56 1
@<TRIPOS>SUBSTRUCTURE
     1 <0>         1 GROUP 0 A     ****
@<TRIPOS>MOLECULE
BRC
   38    37     1     0     0
SMALL
NO_CHARGES

@<TRIPOS>ATOM
      1 C1         -4.0710    0.1832    0.0000 C.2       1 <0>        0.00000
      2 O1         -4.7855   -0.2293    0.0000 O.2       1 <0>        0.00000
      3 O2         -4.0710    1.0083    0.0000 O.3       1 <0>        0.00000
      4 C2         -3.3565   -0.2293    0.0000 C.3       1 <0>        0.00000
      5 C3         -2.6419    0.1832    0.0000 C.3       1 <0>        0.00000
      6 C4         -1.9273   -0.2293    0.0000 C.3       1 <0>        0.00000
      7 C5         -1.2129    0.1832    0.0000 C.3       1 <0>        0.00000
      8 C6         -0.4983   -0.2293    0.0000 C.3       1 <0>        0.00000
      9 C7          0.2162    0.1832    0.0000 C.3       1 <0>        0.00000
     10 C8          0.9307   -0.2293    0.0000 C.3       1 <0>        0.00000
     11 C9          1.6452    0.1832    0.0000 C.3       1 <0>        0.00000
     12 C10         2.3598   -0.2293    0.0000 C.3       1 <0>        0.00000
     13 C11         3.0743    0.1832    0.0000 C.3       1 <0>        0.00000
     14 C12         3.7888   -0.2293    0.0000 C.3       1 <0>        0.00000
     15 Br1         4.5033    0.1832    0.0000 Br        1 <0>        0.00000
     16 H1         -4.0710    1.0083    0.0000 H         1 <0>        0.00000
     17 H2         -3.3565   -0.2293    0.0000 H         1 <0>        0.00000
     18 H3         -3.3565   -0.2293    0.0000 H         1 <0>        0.00000
     19 H4         -2.6419    0.1832    0.0000 H         1 <0>        0.00000
     20 H5         -2.6419    0.1832    0.0000 H         1 <0>        0.00000
     21 H6         -1.9273   -0.2293    0.0000 H         1 <0>        0.00000
     22 H7         -1.9273   -0.2293    0.0000 H         1 <0>        0.00000
     23 H8         -1.2129    0.1832    0.0000 H         1 <0>        0.00000
     24 H9         -1.2129    0.1832    0.0000 H         1 <0>        0.00000
     25 H10        -0.4983   -0.2293    0.0000 H         1 <0>        0.00000
     26 H11        -0.4983   -0.2293    0.0000 H         1 <0>        0.00000
     27 H12         0.2162    0.1832    0.0000 H         1 <0>        0.00000
     28 H13         0.2162    0.1832    0.0000 H         1 <0>        0.00000
     29 H14         0.9307   -0.2293    0.0000 H         1 <0>        0.00000
     30 H15         0.9307   -0.2293    0.0000 H         1 <0>        0.00000
     31 H16         1.6452    0.1832    0.0000 H         1 <0>        0.00000
     32 H17         1.6452    0.1832    0.0000 H         1 <0>        0.00000
     33 H18         2.3598   -0.2293    0.0000 H         1 <0>        0.00000
     34 H19         2.3598   -0.2293    0.0000 H         1 <0>        0.00000
     35 H20         3.0743    0.1832    0.0000 H         1 <0>        0.00000
     36 H21         3.0743    0.1832    0.0000 H         1 <0>        0.00000
     37 H22         3.7888   -0.2293    0.0000 H         1 <0>        0.00000
     38 H23         3.7888   -0.2293    0.0000 H         1 <0>        0.00000
@<TRIPOS>BOND
     1    1    2 2
     2    1    3 1
     3    1    4 1
     4    4    5 1
     5    5    6 1
     6    6    7 1
     7    7    8 1
     8    8    9 1
     9    9   10 1
    10   10   11 1
    11   11   12 1
    12   12   13 1
    13   13   14 1
    14   14   15 1
    15    3   16 1
    16    4   17 1
    17    4   18 1
    18    5   19 1
    19    5   20 1
    20    6   21 1
    21    6   22 1
    22    7   23 1
    23    7   24 1
    24    8   25 1
    25    8   26 1
    26    9   27 1
    27    9   28 1
    28   10   29 1
    29   10   30 1
    30   11   31 1
    31   11   32 1
    32   12   33 1
    33   12   34 1
    34   13   35 1
    35   13   36 1
    36   14   37 1
    37   14   38 1
@<TRIPOS>SUBSTRUCTURE
     1 <0>         1 GROUP 0 A     ****
@<TRIPOS>MOLECULE
M1C
   36    36     1     0     0
SMALL
NO_CHARGES

@<TRIPOS>ATOM
      1 C1         -2.9209   -1.0522    0.0000 C.3       1 <0>        0.00000
      2 C2         -3.3334   -0.3377    0.0000 C.3       1 <0>        0.00000
      3 C3         -2.5084   -0.3377    0.0000 C.3       1 <0>        0.00000
      4 N1          0.3495    1.3123    0.0000 N.3       1 <0>        0.00000
      5 C4          0.3495    0.4873    0.0000 C.3       1 <0>        0.00000
      6 C5         -0.3650    0.0748    0.0000 C.3       1 <0>        0.00000
      7 C6         -1.0794   -0.3377    0.0000 C.3       1 <0>        0.00000
      8 N2         -1.7939    0.0748    0.0000 N.3       1 <0>        0.00000
      9 O1          0.0475   -0.6397    0.0000 O.3       1 <0>        0.00000
     10 O2         -0.7775    0.7893    0.0000 O.3       1 <0>        0.00000
     11 C7          1.0640    0.0748    0.0000 C.3       1 <0>        0.00000
     12 C8          1.7785    0.4873    0.0000 C.3       1 <0>        0.00000
     13 C9          2.4929    0.0748    0.0000 C.3       1 <0>        0.00000
     14 C10         3.2074    0.4873    0.0000 C.3       1 <0>        0.00000
     15 H1         -0.1562    0.7793    0.0000 H         1 <0>        0.00000
     16 H2         -2.9209   -1.0522    0.0000 H         1 <0>        0.00000
     17 H3         -2.9209   -1.0522    0.0000 H         1 <0>        0.00000
     18 H4         -3.3334   -0.3377    0.0000 H         1 <0>        0.00000
     19 H5         -3.3334   -0.3377    0.0000 H         1 <0>        0.00000
     20 H6         -2.5084   -0.3377    0.0000 H         1 <0>        0.00000
     21 H7          0.3495    1.3123    0.0000 H         1 <0>        0.00000
     22 H8          0.3495    1.3123    0.0000 H         1 <0>        0.00000
     23 H9         -1.0794   -0.3377    0.0000 H         1 <0>        0.00000
     24 H10        -1.0794   -0.3377    0.0000 H         1 <0>        0.00000
     25 H11        -1.7939    0.0748    0.0000 H         1 <0>        0.00000
     26 H12         0.0475   -0.6397    0.0000 H         1 <0>        0.00000
     27 H13        -0.7775    0.7893    0.0000 H         1 <0>        0.00000
     28 H14         1.0640    0.0748    0.0000 H         1 <0>        0.00000
     29 H15         1.0640    0.0748    0.0000 H         1 <0>        0.00000
     30 H16         1.7785    0.4873    0.0000 H         1 <0>        0.00000
     31 H17         1.7785    0.4873    0.0000 H         1 <0>        0.00000
     32 H18         2.4929    0.0748    0.0000 H         1 <0>        0.00000
     33 H19         2.4929    0.0748    0.0000 H         1 <0>        0.00000
     34 H20         3.2074    0.4873    0.0000 H         1 <0>        0.00000
     35 H21         3.2074    0.4873    0.0000 H         1 <0>        0.00000
     36 H22         3.2074    0.4873    0.0000 H         1 <0>        0.00000
@<TRIPOS>BOND
     1    1    2 1
     2    1    3 1
     3    2    3 1
     4    3    8 1
     5    4    5 1
     6    5    6 1
     7    5   11 1
     8    5   15 1
     9    6    7 1
    10    6    9 1
    11    6   10 1
    12    7    8 1
    13   11   12 1
    14   12   13 1
    15   13   14 1
    16    1   16 1
    17    1   17 1
    18    2   18 1
    19    2   19 1
    20    3   20 1
    21    4   21 1
    22    4   22 1
    23    7   23 1
    24    7   24 1
    25    8   25 1
    26    9   26 1
    27   10   27 1
    28   11   28 1
    29   11   29 1
    30   12   30 1
    31   12   31 1
    32   13   32 1
    33   13   33 1
    34   14   34 1
    35   14   35 1
    36   14   36 1
@<TRIPOS>SUBSTRUCTURE
     1 <0>         1 GROUP 0 A     ****
@<TRIPOS>MOLECULE
S27
   53    54     1     0     0
SMALL
NO_CHARGES

@<TRIPOS>ATOM
      1 C1         -1.2892   -0.8238    0.0000 C.ar      1 <0>        0.00000
      2 C2         -1.2892   -1.6488    0.0000 C.ar      1 <0>        0.00000
      3 C3         -2.0037   -2.0613    0.0000 C.ar      1 <0>        0.00000
      4 C4         -2.7181   -1.6488    0.0000 C.ar      1 <0>        0.00000
      5 C5         -2.7181   -0.8238    0.0000 C.ar      1 <0>        0.00000
      6 C6         -2.0037   -0.4113    0.0000 C.ar      1 <0>        0.00000
      7 P1         -0.5747   -0.4113    0.0000 P.3       1 <0>        0.00000
      8 O1         -0.1622   -1.1258    0.0000 O.2       1 <0>        0.00000
      9 C7         -0.9872    0.3032    0.0000 C.3       1 <0>        0.00000
     10 N1          0.1397    0.0012    0.0000 N.pl3     1 <0>        0.00000
     11 C8          0.8542   -0.4113    0.0000 C.3       1 <0>        0.00000
     12 C9          0.8542   -1.2363    0.0000 C.ar      1 <0>        0.00000
     13 C10         1.5687   -1.6488    0.0000 C.ar      1 <0>        0.00000
     14 C11         1.5687   -2.4738    0.0000 C.ar      1 <0>        0.00000
     15 C12         0.8542   -2.8863    0.0000 C.ar      1 <0>        0.00000
     16 C13         0.1397   -2.4738    0.0000 C.ar      1 <0>        0.00000
     17 C14         0.1397   -1.6488    0.0000 C.ar      1 <0>        0.00000
     18 C15         0.1397    0.8262    0.0000 C.3       1 <0>        0.00000
     19 C16        -0.5747    1.2387    0.0000 C.2       1 <0>        0.00000
     20 N2         -0.5747    2.0637    0.0000 N.am      1 <0>        0.00000
     21 O2         -1.2892    2.4762    0.0000 O.3       1 <0>        0.00000
     22 O3         -1.2892    0.8262    0.0000 O.2       1 <0>        0.00000
     23 C17         0.8542    1.2387    0.0000 C.3       1 <0>        0.00000
     24 C18         0.8542    2.0637    0.0000 C.3       1 <0>        0.00000
     25 C19         0.1397    2.4762    0.0000 C.3       1 <0>        0.00000
     26 C20         1.5687    2.4762    0.0000 C.3       1 <0>        0.00000
     27 H1         -0.3660    0.5342    0.0000 H         1 <0>        0.00000
     28 H2         -1.2892   -1.6488    0.0000 H         1 <0>        0.00000
     29 H3         -2.0037   -2.0613    0.0000 H         1 <0>        0.00000
     30 H4         -2.7181   -1.6488    0.0000 H         1 <0>        0.00000
     31 H5         -2.7181   -0.8238    0.0000 H         1 <0>        0.00000
     32 H6         -2.0037   -0.4113    0.0000 H         1 <0>        0.00000
     33 H7         -0.9872    0.3032    0.0000 H         1 <0>        0.00000
     34 H8         -0.9872    0.3032    0.0000 H         1 <0>        0.00000
     35 H9         -0.9872    0.3032    0.0000 H         1 <0>        0.00000
     36 H10         0.8542   -0.4113    0.0000 H         1 <0>        0.00000
     37 H11         0.8542   -0.4113    0.0000 H         1 <0>        0.00000
     38 H12         1.5687   -1.6488    0.0000 H         1 <0>        0.00000
     39 H13         1.5687   -2.4738    0.0000 H         1 <0>        0.00000
     40 H14         0.8542   -2.8863    0.0000 H         1 <0>        0.00000
     41 H15         0.1397   -2.4738    0.0000 H         1 <0>        0.00000
     42 H16         0.1397   -1.6488    0.0000 H         1 <0>        0.00000
     43 H17        -0.5747    2.0637    0.0000 H         1 <0>        0.00000
     44 H18        -1.2892    2.4762    0.0000 H         1 <0>        0.00000
     45 H19         0.8542    1.2387    0.0000 H         1 <0>        0.00000
     46 H20         0.8542    1.2387    0.0000 H         1 <0>        0.00000
     47 H21         0.8542    2.0637    0.0000 H         1 <0>        0.00000
     48 H22         0.1397    2.4762    0.0000 H         1 <0>        0.00000
     49 H23         0.1397    2.4762    0.0000 H         1 <0>        0.00000
     50 H24         0.1397    2.4762    0.0000 H         1 <0>        0.00000
     51 H25         1.5687    2.4762    0.0000 H         1 <0>        0.00000
     52 H26         1.5687    2.4762    0.0000 H         1 <0>        0.00000
     53 H27         1.5687    2.4762    0.0000 H         1 <0>        0.00000
@<TRIPOS>BOND
     1    1    2 ar
     2    1    6 ar
     3    1    7 1
     4    2    3 ar
     5    3    4 ar
     6    4    5 ar
     7    5    6 ar
     8    7    8 2
     9    7    9 1
    10    7   10 1
    11   10   11 1
    12   10   18 1
    13   11   12 1
    14   12   13 ar
    15   12   17 ar
    16   13   14 ar
    17   14   15 ar
    18   15   16 ar
    19   16   17 ar
    20   18   19 1
    21   18   23 1
    22   18   27 1
    23   19   20 am
    24   19   22 2
    25   20   21 1
    26   23   24 1
    27   24   25 1
    28   24   26 1
    29    2   28 1
    30    3   29 1
    31    4   30 1
    32    5   31 1
    33    6   32 1
    34    9   33 1
    35    9   34 1
    36    9   35 1
    37   11   36 1
    38   11   37 1
    39   13   38 1
    40   14   39 1
    41   15   40 1
    42   16   41 1
    43   17   42 1
    44   20   43 1
    45   21   44 1
    46   23   45 1
    47   23   46 1
    48   24   47 1
    49   25   48 1
    50   25   49 1
    51   25   50 1
    52   26   51 1
    53   26   52 1
    54   26   53 1
@<TRIPOS>SUBSTRUCTURE
     1 <0>         1 GROUP 0 A     ****
@<TRIPOS>MOLECULE
*****
   86    89     1     0     0
SMALL
NO_CHARGES

@<TRIPOS>ATOM
      1 C1          0.1681   -3.0967    0.0000 C.3       1 <0>        0.00000
      2 C2          0.8826   -2.6842    0.0000 C.2       1 <0>        0.00000
      3 O1          1.5971   -3.0967    0.0000 O.2       1 <0>        0.00000
      4 N1          0.8826   -1.8592    0.0000 N.am      1 <0>        0.00000
      5 C3          1.5971   -1.4467    0.0000 C.3       1 <0>        0.00000
      6 C4          1.5971   -0.6217    0.0000 C.3       1 <0>        0.00000
      7 C5          0.8826   -0.2092    0.0000 C.ar      1 <0>        0.00000
      8 C6          0.8826    0.6158    0.0000 C.ar      1 <0>        0.00000
      9 C7          0.1681    1.0283    0.0000 C.ar      1 <0>        0.00000
     10 C8         -0.5463    0.6158    0.0000 C.ar      1 <0>        0.00000
     11 C9         -0.5463   -0.2092    0.0000 C.ar      1 <0>        0.00000
     12 C10         0.1681   -0.6217    0.0000 C.ar      1 <0>        0.00000
     13 P1         -1.2608   -0.6217    0.0000 P.3       1 <0>        0.00000
     14 O2         -1.9753   -1.0342    0.0000 O.3       1 <0>        0.00000
     15 O3         -0.8483   -1.3361    0.0000 O.3       1 <0>        0.00000
     16 O4         -1.6733    0.0928    0.0000 O.2       1 <0>        0.00000
     17 P2         -1.2608    1.0283    0.0000 P.3       1 <0>        0.00000
     18 O5         -1.9753    1.4408    0.0000 O.3       1 <0>        0.00000
     19 O6         -0.8483    1.7428    0.0000 O.3       1 <0>        0.00000
     20 O7         -1.8739    0.4763    0.0000 O.2       1 <0>        0.00000
     21 C11         2.3116   -1.8592    0.0000 C.2       1 <0>        0.00000
     22 O8          3.0260   -1.4467    0.0000 O.2       1 <0>        0.00000
     23 N2          2.3116   -2.6842    0.0000 N.am      1 <0>        0.00000
     24 C12         3.0260   -3.0967    0.0000 C.3       1 <0>        0.00000
     25 C13         3.7077   -2.6319    0.0000 C.3       1 <0>        0.00000
     26 C14         4.4960   -2.8751    0.0000 C.3       1 <0>        0.00000
     27 C15         4.7974   -3.6431    0.0000 C.3       1 <0>        0.00000
     28 C16         4.3849   -4.3575    0.0000 C.3       1 <0>        0.00000
     29 C17         3.5691   -4.4805    0.0000 C.ar      1 <0>        0.00000
     30 C18         3.3856   -5.2848    0.0000 C.ar      1 <0>        0.00000
     31 C19         2.5972   -5.5280    0.0000 C.ar      1 <0>        0.00000
     32 O9          2.4136   -6.3323    0.0000 O.3       1 <0>        0.00000
     33 C20         3.0184   -6.8934    0.0000 C.3       1 <0>        0.00000
     34 C21         2.8348   -7.6978    0.0000 C.3       1 <0>        0.00000
     35 C22         3.4396   -8.2589    0.0000 C.3       1 <0>        0.00000
     36 C23         3.2560   -9.0632    0.0000 C.3       1 <0>        0.00000
     37 C24         2.4677   -9.3064    0.0000 C.3       1 <0>        0.00000
     38 C25         1.8629   -8.7452    0.0000 C.3       1 <0>        0.00000
     39 C26         2.0465   -7.9409    0.0000 C.3       1 <0>        0.00000
     40 C27         1.9925   -4.9668    0.0000 C.ar      1 <0>        0.00000
     41 C28         2.1760   -4.1625    0.0000 C.ar      1 <0>        0.00000
     42 C29         2.9644   -3.9193    0.0000 C.ar      1 <0>        0.00000
     43 C30         1.2041   -5.2100    0.0000 C.2       1 <0>        0.00000
     44 N3          1.0205   -6.0143    0.0000 N.am      1 <0>        0.00000
     45 O10         0.5993   -4.6489    0.0000 O.2       1 <0>        0.00000
     46 H1          0.1681   -3.0967    0.0000 H         1 <0>        0.00000
     47 H2          0.1681   -3.0967    0.0000 H         1 <0>        0.00000
     48 H3          0.1681   -3.0967    0.0000 H         1 <0>        0.00000
     49 H4          0.8826   -1.8592    0.0000 H         1 <0>        0.00000
     50 H5          1.5971   -1.4467    0.0000 H         1 <0>        0.00000
     51 H6          1.5971   -0.6217    0.0000 H         1 <0>        0.00000
     52 H7          1.5971   -0.6217    0.0000 H         1 <0>        0.00000
     53 H8          0.8826    0.6158    0.0000 H         1 <0>        0.00000
     54 H9          0.1681    1.0283    0.0000 H         1 <0>        0.00000
     55 H10         0.1681   -0.6217    0.0000 H         1 <0>        0.00000
     56 H11        -1.9753   -1.0342    0.0000 H         1 <0>        0.00000
     57 H12        -0.8483   -1.3361    0.0000 H         1 <0>        0.00000
     58 H13        -1.9753    1.4408    0.0000 H         1 <0>        0.00000
     59 H14        -0.8483    1.7428    0.0000 H         1 <0>        0.00000
     60 H15         2.3116   -2.6842    0.0000 H         1 <0>        0.00000
     61 H16         3.0260   -3.0967    0.0000 H         1 <0>        0.00000
     62 H17         3.7077   -2.6319    0.0000 H         1 <0>        0.00000
     63 H18         3.7077   -2.6319    0.0000 H         1 <0>        0.00000
     64 H19         4.4960   -2.8751    0.0000 H         1 <0>        0.00000
     65 H20         4.4960   -2.8751    0.0000 H         1 <0>        0.00000
     66 H21         4.7974   -3.6431    0.0000 H         1 <0>        0.00000
     67 H22         4.7974   -3.6431    0.0000 H         1 <0>        0.00000
     68 H23         4.3849   -4.3575    0.0000 H         1 <0>        0.00000
     69 H24         4.3849   -4.3575    0.0000 H         1 <0>        0.00000
     70 H25         3.3856   -5.2848    0.0000 H         1 <0>        0.00000
     71 H26         3.0184   -6.8934    0.0000 H         1 <0>        0.00000
     72 H27         3.0184   -6.8934    0.0000 H         1 <0>        0.00000
     73 H28         2.8348   -7.6978    0.0000 H         1 <0>        0.00000
     74 H29         3.4396   -8.2589    0.0000 H         1 <0>        0.00000
     75 H30         3.4396   -8.2589    0.0000 H         1 <0>        0.00000
     76 H31         3.2560   -9.0632    0.0000 H         1 <0>        0.00000
     77 H32         3.2560   -9.0632    0.0000 H         1 <0>        0.00000
     78 H33         2.4677   -9.3064    0.0000 H         1 <0>        0.00000
     79 H34         2.4677   -9.3064    0.0000 H         1 <0>        0.00000
     80 H35         1.8629   -8.7452    0.0000 H         1 <0>        0.00000
     81 H36         1.8629   -8.7452    0.0000 H         1 <0>        0.00000
     82 H37         2.0465   -7.9409    0.0000 H         1 <0>        0.00000
     83 H38         2.0465   -7.9409    0.0000 H         1 <0>        0.00000
     84 H39         2.1760   -4.1625    0.0000 H         1 <0>        0.00000
     85 H40         1.0205   -6.0143    0.0000 H         1 <0>        0.00000
     86 H41         1.0205   -6.0143    0.0000 H         1 <0>        0.00000
@<TRIPOS>BOND
     1    1    2 1
     2    2    3 2
     3    2    4 am
     4    4    5 1
     5    5    6 1
     6    6    7 1
     7    7    8 ar
     8    8    9 ar
     9    9   10 ar
    10   10   11 ar
    11   11   12 ar
    12    7   12 ar
    13   11   13 1
    14   13   14 1
    15   13   15 1
    16   13   16 2
    17   10   17 1
    18   17   18 1
    19   17   19 1
    20   17   20 2
    21    5   21 1
    22   21   22 2
    23   21   23 am
    24   23   24 1
    25   24   25 1
    26   25   26 1
    27   26   27 1
    28   27   28 1
    29   28   29 1
    30   29   30 ar
    31   30   31 ar
    32   31   32 1
    33   32   33 1
    34   33   34 1
    35   34   35 1
    36   35   36 1
    37   36   37 1
    38   37   38 1
    39   38   39 1
    40   34   39 1
    41   31   40 ar
    42   40   41 ar
    43   41   42 ar
    44   24   42 1
    45   29   42 ar
    46   40   43 1
    47   43   44 am
    48   43   45 2
    49    1   46 1
    50    1   47 1
    51    1   48 1
    52    4   49 1
    53    5   50 1
    54    6   51 1
    55    6   52 1
    56    8   53 1
    57    9   54 1
    58   12   55 1
    59   14   56 1
    60   15   57 1
    61   18   58 1
    62   19   59 1
    63   23   60 1
    64   24   61 1
    65   25   62 1
    66   25   63 1
    67   26   64 1
    68   26   65 1
    69   27   66 1
    70   27   67 1
    71   28   68 1
    72   28   69 1
    73   30   70 1
    74   33   71 1
    75   33   72 1
    76   34   73 1
    77   35   74 1
    78   35   75 1
    79   36   76 1
    80   36   77 1
    81   37   78 1
    82   37   79 1
    83   38   80 1
    84   38   81 1
    85   39   82 1
    86   39   83 1
    87   41   84 1
    88   44   85 1
    89   44   86 1
@<TRIPOS>SUBSTRUCTURE
     1 <0>         1 GROUP 0 A     ****
@<TRIPOS>MOLECULE
*****
   20    20     1     0     0
SMALL
NO_CHARGES

@<TRIPOS>ATOM
      1 N1          1.5783    2.2433    0.0000 N.3       1 <0>        0.00000
      2 C1          2.1913    1.6913    0.0000 C.3       1 <0>        0.00000
      3 C2          2.0198    0.8843    0.0000 C.3       1 <0>        0.00000
      4 N2          1.2352    0.6294    0.0000 N.am      1 <0>        0.00000
      5 O1          0.9803   -0.1553    0.0000 O.3       1 <0>        0.00000
      6 C3          0.1553   -0.1553    0.0000 C.ar      1 <0>        0.00000
      7 O2         -0.3297   -0.8227    0.0000 O.2       1 <0>        0.00000
      8 N3         -0.0997    0.6294    0.0000 N.am      1 <0>        0.00000
      9 C4          0.5678    1.1143    0.0000 C.ar      1 <0>        0.00000
     10 O3          0.5678    1.9393    0.0000 O.2       1 <0>        0.00000
     11 C5          2.9760    1.9462    0.0000 C.2       1 <0>        0.00000
     12 O4          3.1475    2.7532    0.0000 O.3       1 <0>        0.00000
     13 O5          3.5891    1.3942    0.0000 O.2       1 <0>        0.00000
     14 H1          1.5783    2.2433    0.0000 H         1 <0>        0.00000
     15 H2          1.5783    2.2433    0.0000 H         1 <0>        0.00000
     16 H3          2.1913    1.6913    0.0000 H         1 <0>        0.00000
     17 H4          2.0198    0.8843    0.0000 H         1 <0>        0.00000
     18 H5          2.0198    0.8843    0.0000 H         1 <0>        0.00000
     19 H6         -0.0997    0.6294    0.0000 H         1 <0>        0.00000
     20 H7          3.1475    2.7532    0.0000 H         1 <0>        0.00000
@<TRIPOS>BOND
     1    1    2 1
     2    2    3 1
     3    3    4 1
     4    4    5 1
     5    5    6 1
     6    6    7 2
     7    6    8 am
     8    8    9 am
     9    4    9 am
    10    9   10 2
    11    2   11 1
    12   11   12 1
    13   11   13 2
    14    1   14 1
    15    1   15 1
    16    2   16 1
    17    3   17 1
    18    3   18 1
    19    8   19 1
    20   12   20 1
@<TRIPOS>SUBSTRUCTURE
     1 <0>         1 GROUP 0 A     ****
@<TRIPOS>MOLECULE
*****
   96    99     1     0     0
SMALL
NO_CHARGES

@<TRIPOS>ATOM
      1 C1        -12.9064   -3.9341    0.0000 C.3       1 <0>        0.00000
      2 C2        -12.1527   -4.2696    0.0000 C.2       1 <0>        0.00000
      3 O1        -12.0665   -5.0901    0.0000 O.2       1 <0>        0.00000
      4 O2        -11.4853   -3.7847    0.0000 O.3       1 <0>        0.00000
      5 C3        -10.7316   -4.1203    0.0000 C.3       1 <0>        0.00000
      6 C4        -10.0641   -3.6354    0.0000 C.3       1 <0>        0.00000
      7 C5         -9.3105   -3.9709    0.0000 C.3       1 <0>        0.00000
      8 C6         -9.1109   -3.1704    0.0000 C.3       1 <0>        0.00000
      9 C7         -8.4875   -4.0285    0.0000 C.3       1 <0>        0.00000
     10 C8         -9.2242   -4.7914    0.0000 C.2       1 <0>        0.00000
     11 C9         -8.4706   -5.1270    0.0000 C.1       1 <0>        0.00000
     12 C10        -7.7169   -5.4625    0.0000 C.2       1 <0>        0.00000
     13 C11        -7.0494   -4.9776    0.0000 C.2       1 <0>        0.00000
     14 C12        -7.1357   -4.1571    0.0000 C.3       1 <0>        0.00000
     15 C13        -6.2958   -5.3131    0.0000 C.2       1 <0>        0.00000
     16 C14        -5.6283   -4.8282    0.0000 C.2       1 <0>        0.00000
     17 C15        -4.8747   -5.1638    0.0000 C.2       1 <0>        0.00000
     18 C16        -4.2072   -4.6789    0.0000 C.2       1 <0>        0.00000
     19 C17        -3.4535   -5.0144    0.0000 C.2       1 <0>        0.00000
     20 C18        -2.7861   -4.5295    0.0000 C.2       1 <0>        0.00000
     21 C19        -2.0324   -4.8651    0.0000 C.2       1 <0>        0.00000
     22 C20        -1.9462   -5.6855    0.0000 C.3       1 <0>        0.00000
     23 C21        -1.3650   -4.3801    0.0000 C.2       1 <0>        0.00000
     24 C22        -1.4512   -3.5596    0.0000 C.ar      1 <0>        0.00000
     25 O3         -2.1657   -3.1471    0.0000 O.3       1 <0>        0.00000
     26 C23        -1.9942   -2.3402    0.0000 C.ar      1 <0>        0.00000
     27 O4         -2.5462   -1.7271    0.0000 O.2       1 <0>        0.00000
     28 C24        -1.1737   -2.2539    0.0000 C.ar      1 <0>        0.00000
     29 C25        -0.7612   -1.5395    0.0000 C.2       1 <0>        0.00000
     30 C26         0.0638   -1.5395    0.0000 C.2       1 <0>        0.00000
     31 C27         0.4763   -0.8250    0.0000 C.3       1 <0>        0.00000
     32 O5         -0.2382   -0.4125    0.0000 O.3       1 <0>        0.00000
     33 C28         0.4763    0.0000    0.0000 C.3       1 <0>        0.00000
     34 C29         0.0638    0.7145    0.0000 C.3       1 <0>        0.00000
     35 C30         1.1908    0.4125    0.0000 C.3       1 <0>        0.00000
     36 C31         1.9053    0.0000    0.0000 C.3       1 <0>        0.00000
     37 O6          2.6197    0.4125    0.0000 O.3       1 <0>        0.00000
     38 C32         1.9053   -0.8250    0.0000 C.3       1 <0>        0.00000
     39 C33         1.1908   -1.2375    0.0000 C.3       1 <0>        0.00000
     40 C34         1.5781   -1.9659    0.0000 C.3       1 <0>        0.00000
     41 C35         0.8035   -1.9659    0.0000 C.3       1 <0>        0.00000
     42 C36        -0.8381   -3.0076    0.0000 C.ar      1 <0>        0.00000
     43 C37        -9.8917   -5.2763    0.0000 C.3       1 <0>        0.00000
     44 C38        -9.2982   -5.8494    0.0000 C.3       1 <0>        0.00000
     45 O7        -10.3530   -5.9603    0.0000 O.3       1 <0>        0.00000
     46 C39       -10.6453   -4.9408    0.0000 C.3       1 <0>        0.00000
     47 H1        -12.9064   -3.9341    0.0000 H         1 <0>        0.00000
     48 H2        -12.9064   -3.9341    0.0000 H         1 <0>        0.00000
     49 H3        -12.9064   -3.9341    0.0000 H         1 <0>        0.00000
     50 H4        -10.7316   -4.1203    0.0000 H         1 <0>        0.00000
     51 H5        -10.0641   -3.6354    0.0000 H         1 <0>        0.00000
     52 H6        -10.0641   -3.6354    0.0000 H         1 <0>        0.00000
     53 H7         -9.1109   -3.1704    0.0000 H         1 <0>        0.00000
     54 H8         -9.1109   -3.1704    0.0000 H         1 <0>        0.00000
     55 H9         -9.1109   -3.1704    0.0000 H         1 <0>        0.00000
     56 H10        -8.4875   -4.0285    0.0000 H         1 <0>        0.00000
     57 H11        -8.4875   -4.0285    0.0000 H         1 <0>        0.00000
     58 H12        -8.4875   -4.0285    0.0000 H         1 <0>        0.00000
     59 H13        -7.7169   -5.4625    0.0000 H         1 <0>        0.00000
     60 H14        -7.1357   -4.1571    0.0000 H         1 <0>        0.00000
     61 H15        -7.1357   -4.1571    0.0000 H         1 <0>        0.00000
     62 H16        -7.1357   -4.1571    0.0000 H         1 <0>        0.00000
     63 H17        -6.2958   -5.3131    0.0000 H         1 <0>        0.00000
     64 H18        -5.6283   -4.8282    0.0000 H         1 <0>        0.00000
     65 H19        -4.8747   -5.1638    0.0000 H         1 <0>        0.00000
     66 H20        -4.2072   -4.6789    0.0000 H         1 <0>        0.00000
     67 H21        -3.4535   -5.0144    0.0000 H         1 <0>        0.00000
     68 H22        -2.7861   -4.5295    0.0000 H         1 <0>        0.00000
     69 H23        -1.9462   -5.6855    0.0000 H         1 <0>        0.00000
     70 H24        -1.9462   -5.6855    0.0000 H         1 <0>        0.00000
     71 H25        -1.9462   -5.6855    0.0000 H         1 <0>        0.00000
     72 H26        -1.3650   -4.3801    0.0000 H         1 <0>        0.00000
     73 H27        -0.7612   -1.5395    0.0000 H         1 <0>        0.00000
     74 H28         0.0638   -1.5395    0.0000 H         1 <0>        0.00000
     75 H29         0.0638    0.7145    0.0000 H         1 <0>        0.00000
     76 H30         0.0638    0.7145    0.0000 H         1 <0>        0.00000
     77 H31         0.0638    0.7145    0.0000 H         1 <0>        0.00000
     78 H32         1.1908    0.4125    0.0000 H         1 <0>        0.00000
     79 H33         1.1908    0.4125    0.0000 H         1 <0>        0.00000
     80 H34         1.9053    0.0000    0.0000 H         1 <0>        0.00000
     81 H35         2.6197    0.4125    0.0000 H         1 <0>        0.00000
     82 H36         1.9053   -0.8250    0.0000 H         1 <0>        0.00000
     83 H37         1.9053   -0.8250    0.0000 H         1 <0>        0.00000
     84 H38         1.5781   -1.9659    0.0000 H         1 <0>        0.00000
     85 H39         1.5781   -1.9659    0.0000 H         1 <0>        0.00000
     86 H40         1.5781   -1.9659    0.0000 H         1 <0>        0.00000
     87 H41         0.8035   -1.9659    0.0000 H         1 <0>        0.00000
     88 H42         0.8035   -1.9659    0.0000 H         1 <0>        0.00000
     89 H43         0.8035   -1.9659    0.0000 H         1 <0>        0.00000
     90 H44        -0.8381   -3.0076    0.0000 H         1 <0>        0.00000
     91 H45        -9.2982   -5.8494    0.0000 H         1 <0>        0.00000
     92 H46        -9.2982   -5.8494    0.0000 H         1 <0>        0.00000
     93 H47        -9.2982   -5.8494    0.0000 H         1 <0>        0.00000
     94 H48       -10.3530   -5.9603    0.0000 H         1 <0>        0.00000
     95 H49       -10.6453   -4.9408    0.0000 H         1 <0>        0.00000
     96 H50       -10.6453   -4.9408    0.0000 H         1 <0>        0.00000
@<TRIPOS>BOND
     1    1    2 1
     2    2    3 2
     3    2    4 1
     4    4    5 1
     5    5    6 1
     6    6    7 1
     7    7    8 1
     8    7    9 1
     9    7   10 1
    10   10   11 2
    11   11   12 2
    12   12   13 1
    13   13   14 1
    14   13   15 2
    15   15   16 1
    16   16   17 2
    17   17   18 1
    18   18   19 2
    19   19   20 1
    20   20   21 2
    21   21   22 1
    22   21   23 1
    23   23   24 2
    24   24   25 1
    25   25   26 1
    26   26   27 2
    27   26   28 1
    28   28   29 1
    29   29   30 2
    30   30   31 1
    31   31   32 1
    32   32   33 1
    33   31   33 1
    34   33   34 1
    35   33   35 1
    36   35   36 1
    37   36   37 1
    38   36   38 1
    39   38   39 1
    40   31   39 1
    41   39   40 1
    42   39   41 1
    43   28   42 2
    44   24   42 1
    45   10   43 1
    46   43   44 1
    47   43   45 1
    48   43   46 1
    49    5   46 1
    50    1   47 1
    51    1   48 1
    52    1   49 1
    53    5   50 1
    54    6   51 1
    55    6   52 1
    56    8   53 1
    57    8   54 1
    58    8   55 1
    59    9   56 1
    60    9   57 1
    61    9   58 1
    62   12   59 1
    63   14   60 1
    64   14   61 1
    65   14   62 1
    66   15   63 1
    67   16   64 1
    68   17   65 1
    69   18   66 1
    70   19   67 1
    71   20   68 1
    72   22   69 1
    73   22   70 1
    74   22   71 1
    75   23   72 1
    76   29   73 1
    77   30   74 1
    78   34   75 1
    79   34   76 1
    80   34   77 1
    81   35   78 1
    82   35   79 1
    83   36   80 1
    84   37   81 1
    85   38   82 1
    86   38   83 1
    87   40   84 1
    88   40   85 1
    89   40   86 1
    90   41   87 1
    91   41   88 1
    92   41   89 1
    93   42   90 1
    94   44   91 1
    95   44   92 1
    96   44   93 1
    97   45   94 1
    98   46   95 1
    99   46   96 1
@<TRIPOS>SUBSTRUCTURE
     1 <0>         1 GROUP 0 A     ****
@<TRIPOS>MOLECULE
*****
   34    36     1     0     0
SMALL
NO_CHARGES

@<TRIPOS>ATOM
      1 N1          3.2789    2.0625    0.0000 N.pl3     1 <0>        0.00000
      2 C1          3.2789    1.2375    0.0000 C.ar      1 <0>        0.00000
      3 N2          3.9934    0.8250    0.0000 N.ar      1 <0>        0.00000
      4 C2          3.9934    0.0000    0.0000 C.ar      1 <0>        0.00000
      5 N3          3.2789   -0.4125    0.0000 N.ar      1 <0>        0.00000
      6 C3          2.5645    0.0000    0.0000 C.ar      1 <0>        0.00000
      7 C4          2.5645    0.8250    0.0000 C.ar      1 <0>        0.00000
      8 C5          1.7798    1.0799    0.0000 C.3       1 <0>        0.00000
      9 I1          1.5249    1.8646    0.0000 I         1 <0>        0.00000
     10 N4          1.2949    0.4125    0.0000 N.3       1 <0>        0.00000
     11 N5          1.7798   -0.2549    0.0000 N.pl3     1 <0>        0.00000
     12 C6          1.5249   -1.0396    0.0000 C.3       1 <0>        0.00000
     13 O1          2.0098   -1.7070    0.0000 O.3       1 <0>        0.00000
     14 C7          1.5249   -2.3744    0.0000 C.3       1 <0>        0.00000
     15 C8          1.7798   -3.1591    0.0000 C.3       1 <0>        0.00000
     16 O2          2.5868   -3.3306    0.0000 O.3       1 <0>        0.00000
     17 C9          0.7403   -2.1195    0.0000 C.3       1 <0>        0.00000
     18 O3          0.0728   -2.6044    0.0000 O.3       1 <0>        0.00000
     19 C10         0.7403   -1.2945    0.0000 C.3       1 <0>        0.00000
     20 O4          0.0728   -0.8096    0.0000 O.3       1 <0>        0.00000
     21 H1          3.2789    2.0625    0.0000 H         1 <0>        0.00000
     22 H2          3.2789    2.0625    0.0000 H         1 <0>        0.00000
     23 H3          3.9934    0.0000    0.0000 H         1 <0>        0.00000
     24 H4          1.7798    1.0799    0.0000 H         1 <0>        0.00000
     25 H5          1.2949    0.4125    0.0000 H         1 <0>        0.00000
     26 H6          1.5249   -1.0396    0.0000 H         1 <0>        0.00000
     27 H7          1.5249   -2.3744    0.0000 H         1 <0>        0.00000
     28 H8          1.7798   -3.1591    0.0000 H         1 <0>        0.00000
     29 H9          1.7798   -3.1591    0.0000 H         1 <0>        0.00000
     30 H10         2.5868   -3.3306    0.0000 H         1 <0>        0.00000
     31 H11         0.7403   -2.1195    0.0000 H         1 <0>        0.00000
     32 H12         0.0728   -2.6044    0.0000 H         1 <0>        0.00000
     33 H13         0.7403   -1.2945    0.0000 H         1 <0>        0.00000
     34 H14         0.0728   -0.8096    0.0000 H         1 <0>        0.00000
@<TRIPOS>BOND
     1    1    2 1
     2    2    3 ar
     3    3    4 ar
     4    4    5 ar
     5    5    6 ar
     6    6    7 ar
     7    2    7 ar
     8    7    8 1
     9    8    9 1
    10    8   10 1
    11   10   11 1
    12    6   11 1
    13   11   12 1
    14   12   13 1
    15   13   14 1
    16   14   15 1
    17   15   16 1
    18   14   17 1
    19   17   18 1
    20   17   19 1
    21   12   19 1
    22   19   20 1
    23    1   21 1
    24    1   22 1
    25    4   23 1
    26    8   24 1
    27   10   25 1
    28   12   26 1
    29   14   27 1
    30   15   28 1
    31   15   29 1
    32   16   30 1
    33   17   31 1
    34   18   32 1
    35   19   33 1
    36   20   34 1
@<TRIPOS>SUBSTRUCTURE
     1 <0>         1 GROUP 0 A     ****
