@<TRIPOS>MOLECULE
S98
   34    37     1     0     0
SMALL
NO_CHARGES

@<TRIPOS>ATOM
      1 N1          0.2769   -0.9145    0.0000 NA        1 <0>        0.00000
      2 C1         -0.5077   -0.6596    0.0000 CB        1 <0>        0.00000
      3 C2         -0.5077    0.1654    0.0000 CB        1 <0>        0.00000
      4 N2          0.2769    0.4204    0.0000 NB        1 <0>        0.00000
      5 C3          0.7618   -0.2471    0.0000 CR        1 <0>        0.00000
      6 N3          1.5868   -0.2471    0.0000 N2        1 <0>        0.00000
      7 C4          1.9993    0.4674    0.0000 CT        1 <0>        0.00000
      8 C5          2.8243    0.4674    0.0000 CW        1 <0>        0.00000
      9 C6         -1.2222    0.5779    0.0000 CA        1 <0>        0.00000
     10 C7         -1.9367    0.1654    0.0000 CB        1 <0>        0.00000
     11 C8         -1.9367   -0.6596    0.0000 CB        1 <0>        0.00000
     12 C9         -2.6512   -1.0721    0.0000 C         1 <0>        0.00000
     13 O1         -2.6512   -1.8971    0.0000 O         1 <0>        0.00000
     14 N4         -3.3656   -0.6596    0.0000 N         1 <0>        0.00000
     15 C10        -3.3656    0.1654    0.0000 CA        1 <0>        0.00000
     16 N5         -4.0801    0.5779    0.0000 N2        1 <0>        0.00000
     17 N6         -2.6512    0.5779    0.0000 NC        1 <0>        0.00000
     18 C11        -1.2222   -1.0721    0.0000 CA        1 <0>        0.00000
     19 C12         3.3092    1.1348    0.0000 CC        1 <0>        0.00000
     20 C13         4.0939    0.8799    0.0000 CC        1 <0>        0.00000
     21 C14         4.0939    0.0549    0.0000 CW        1 <0>        0.00000
     22 S1          3.3092   -0.2001    0.0000 S         1 <0>        0.00000
     23 H1          0.2769   -0.9145    0.0000 H         1 <0>        0.00000
     24 H2          1.5868   -0.2471    0.0000 H         1 <0>        0.00000
     25 H3          1.9993    0.4674    0.0000 H1        1 <0>        0.00000
     26 H4          1.9993    0.4674    0.0000 H1        1 <0>        0.00000
     27 H5         -1.2222    0.5779    0.0000 HA        1 <0>        0.00000
     28 H6         -3.3656   -0.6596    0.0000 H         1 <0>        0.00000
     29 H7         -4.0801    0.5779    0.0000 H         1 <0>        0.00000
     30 H8         -4.0801    0.5779    0.0000 H         1 <0>        0.00000
     31 H9         -1.2222   -1.0721    0.0000 HA        1 <0>        0.00000
     32 H10         3.3092    1.1348    0.0000 HA        1 <0>        0.00000
     33 H11         4.0939    0.8799    0.0000 HA        1 <0>        0.00000
     34 H12         4.0939    0.0549    0.0000 H4        1 <0>        0.00000
@<TRIPOS>BOND
     1    1    2 1
     2    1    5 1
     3    2    3 ar
     4    2   18 ar
     5    3    4 1
     6    3    9 ar
     7    4    5 2
     8    5    6 1
     9    6    7 1
    10    7    8 1
    11    8   19 2
    12    8   22 1
    13    9   10 ar
    14   10   11 ar
    15   10   17 1
    16   11   12 1
    17   11   18 ar
    18   12   13 2
    19   12   14 am
    20   14   15 1
    21   15   16 1
    22   15   17 2
    23   19   20 1
    24   20   21 2
    25   21   22 1
    26    1   23 1
    27    6   24 1
    28    7   25 1
    29    7   26 1
    30    9   27 1
    31   14   28 1
    32   16   29 1
    33   16   30 1
    34   18   31 1
    35   19   32 1
    36   20   33 1
    37   21   34 1
@<TRIPOS>SUBSTRUCTURE
     1 <0>         1 GROUP 0 A     ****
@<TRIPOS>MOLECULE
1189
   12    11     1     0     0
SMALL
NO_CHARGES

@<TRIPOS>ATOM
      1 F1          3.0791    0.9760    0.0000 F         1 <0>        0.00000
      2 F2          1.6500   -0.6740    0.0000 F         1 <0>        0.00000
      3 F3          1.9520    0.4529    0.0000 F         1 <0>        0.00000
      4 F4          2.7770   -0.9760    0.0000 F         1 <0>        0.00000
      5 F5          5.2224   -0.2615    0.0000 F         1 <0>        0.00000
      6 F6          4.5080    0.9760    0.0000 F         1 <0>        0.00000
      7 O1          3.7935   -0.2615    0.0000 OS        1 <0>        0.00000
      8 C1          3.0791    0.1510    0.0000 CT        1 <0>        0.00000
      9 C2          2.3645   -0.2615    0.0000 CT        1 <0>        0.00000
     10 C3          4.5080    0.1510    0.0000 CT        1 <0>        0.00000
     11 H1          3.0791    0.1510    0.0000 H2        1 <0>        0.00000
     12 H2          4.5080    0.1510    0.0000 H3        1 <0>        0.00000
@<TRIPOS>BOND
     1    1    8 1
     2    2    9 1
     3    3    9 1
     4    4    9 1
     5    5   10 1
     6    6   10 1
     7    7    8 1
     8    7   10 1
     9    8    9 1
    10    8   11 1
    11   10   12 1
@<TRIPOS>SUBSTRUCTURE
     1 <0>         1 GROUP 0 A     ****
@<TRIPOS>MOLECULE
MiniDrugBank_2
   12    11     1     0     0
SMALL
NO_CHARGES

@<TRIPOS>ATOM
      1 O1         -0.6039   -1.6500    0.0000 OH        1 <0>        0.00000
      2 P1          0.1105   -1.2375    0.0000 P         1 <0>        0.00000
      3 O2          0.5230   -1.9520    0.0000 OH        1 <0>        0.00000
      4 O3         -0.3020   -0.5230    0.0000 O         1 <0>        0.00000
      5 O4          0.8250   -0.8250    0.0000 OS        1 <0>        0.00000
      6 P2          0.8250    0.0000    0.0000 P         1 <0>        0.00000
      7 O5          0.8250    0.8250    0.0000 OH        1 <0>        0.00000
      8 S1          1.6500    0.0000    0.0000 Su        1 <0>        0.00000
      9 O6          0.0000    0.0000    0.0000 O         1 <0>        0.00000
     10 H1         -0.6039   -1.6500    0.0000 HO        1 <0>        0.00000
     11 H2          0.5230   -1.9520    0.0000 HO        1 <0>        0.00000
     12 H3          0.8250    0.8250    0.0000 HO        1 <0>        0.00000
@<TRIPOS>BOND
     1    1    2 1
     2    2    3 1
     3    2    4 2
     4    2    5 1
     5    5    6 1
     6    6    7 1
     7    6    8 1
     8    6    9 2
     9    1   10 1
    10    3   11 1
    11    7   12 1
@<TRIPOS>SUBSTRUCTURE
     1 <0>         1 GROUP 0 A     ****
@<TRIPOS>MOLECULE
IN9
   37    38     1     0     0
SMALL
NO_CHARGES

@<TRIPOS>ATOM
      1 C1         -1.4386   -1.4419    0.0000 CR        1 <0>        0.00000
      2 C2         -1.7161   -2.7477    0.0000 CR        1 <0>        0.00000
      3 C3         -0.2011   -0.7275    0.0000 C         1 <0>        0.00000
      4 C4          1.4489    0.7015    0.0000 CT        1 <0>        0.00000
      5 C5          1.4489    2.1304    0.0000 CA        1 <0>        0.00000
      6 C6          1.0364    1.4159    0.0000 CA        1 <0>        0.00000
      7 C7          0.2114    1.4159    0.0000 CA        1 <0>        0.00000
      8 C8         -0.2011    2.1304    0.0000 CA        1 <0>        0.00000
      9 C9          0.2114    2.8449    0.0000 CA        1 <0>        0.00000
     10 C10         1.0364    2.8449    0.0000 CA        1 <0>        0.00000
     11 C11         2.6864   -1.4419    0.0000 CT        1 <0>        0.00000
     12 S1         -1.1030   -2.1956    0.0000 S         1 <0>        0.00000
     13 N1         -2.2590   -1.5282    0.0000 NB        1 <0>        0.00000
     14 N2         -2.4306   -2.3352    0.0000 NB        1 <0>        0.00000
     15 N3         -1.0261   -0.7275    0.0000 N         1 <0>        0.00000
     16 S2         -1.6299   -3.5681    0.0000 SH        1 <0>        0.00000
     17 O1          0.2114   -1.4419    0.0000 O         1 <0>        0.00000
     18 N4          0.2114   -0.0130    0.0000 N         1 <0>        0.00000
     19 C12         1.0364   -0.0130    0.0000 CT        1 <0>        0.00000
     20 C13         1.4489   -0.7275    0.0000 C         1 <0>        0.00000
     21 O2          1.0364   -1.4419    0.0000 O         1 <0>        0.00000
     22 N5          2.2739   -0.7275    0.0000 N         1 <0>        0.00000
     23 F1         -0.2011    0.7015    0.0000 F         1 <0>        0.00000
     24 F2         -1.0261    2.1304    0.0000 F         1 <0>        0.00000
     25 F3         -0.2011    3.5594    0.0000 F         1 <0>        0.00000
     26 F4          1.4489    3.5594    0.0000 F         1 <0>        0.00000
     27 F5          2.2739    2.1304    0.0000 F         1 <0>        0.00000
     28 H1          0.7445    0.4927    0.0000 H1        1 <0>        0.00000
     29 H2          1.4489    0.7015    0.0000 HC        1 <0>        0.00000
     30 H3          1.4489    0.7015    0.0000 HC        1 <0>        0.00000
     31 H4          2.6864   -1.4419    0.0000 H1        1 <0>        0.00000
     32 H5          2.6864   -1.4419    0.0000 H1        1 <0>        0.00000
     33 H6          2.6864   -1.4419    0.0000 H1        1 <0>        0.00000
     34 H7         -1.0261   -0.7275    0.0000 H         1 <0>        0.00000
     35 H8         -1.6299   -3.5681    0.0000 HS        1 <0>        0.00000
     36 H9          0.2114   -0.0130    0.0000 H         1 <0>        0.00000
     37 H10         2.2739   -0.7275    0.0000 H         1 <0>        0.00000
@<TRIPOS>BOND
     1    1   12 1
     2    1   13 2
     3    1   15 1
     4    2   12 1
     5    2   14 2
     6    2   16 1
     7    3   15 am
     8    3   17 2
     9    3   18 am
    10    4    6 1
    11    4   19 1
    12    5    6 ar
    13    5   10 ar
    14    5   27 1
    15    6    7 ar
    16    7    8 ar
    17    7   23 1
    18    8    9 ar
    19    8   24 1
    20    9   10 ar
    21    9   25 1
    22   10   26 1
    23   11   22 1
    24   13   14 1
    25   18   19 1
    26   19   20 1
    27   19   28 1
    28   20   21 2
    29   20   22 am
    30    4   29 1
    31    4   30 1
    32   11   31 1
    33   11   32 1
    34   11   33 1
    35   15   34 1
    36   16   35 1
    37   18   36 1
    38   22   37 1
@<TRIPOS>SUBSTRUCTURE
     1 <0>         1 GROUP 0 A     ****
@<TRIPOS>MOLECULE
MiniDrugBank_4
   30    29     1     0     0
SMALL
NO_CHARGES

@<TRIPOS>ATOM
      1 O1          1.7605    1.8414    0.0000 OH        1 <0>        0.00000
      2 C1          2.4750    1.4289    0.0000 CT        1 <0>        0.00000
      3 C2          3.1895    1.8414    0.0000 CT        1 <0>        0.00000
      4 C3          3.9039    1.4289    0.0000 CT        1 <0>        0.00000
      5 O2          3.9039    0.6039    0.0000 OH        1 <0>        0.00000
      6 C4          4.6184    1.8414    0.0000 CT        1 <0>        0.00000
      7 O3          4.6184    2.6664    0.0000 OH        1 <0>        0.00000
      8 C5          5.3329    1.4289    0.0000 CT        1 <0>        0.00000
      9 O4          5.3329    0.6039    0.0000 OH        1 <0>        0.00000
     10 C6          6.0474    1.8414    0.0000 CM        1 <0>        0.00000
     11 C7          6.7618    1.4289    0.0000 CM        1 <0>        0.00000
     12 P1          7.4763    1.8414    0.0000 P         1 <0>        0.00000
     13 O5          8.1908    2.2539    0.0000 OH        1 <0>        0.00000
     14 O6          7.8888    1.1270    0.0000 OH        1 <0>        0.00000
     15 O7          7.0638    2.5559    0.0000 O         1 <0>        0.00000
     16 H1          1.7605    1.8414    0.0000 HO        1 <0>        0.00000
     17 H2          2.4750    1.4289    0.0000 H1        1 <0>        0.00000
     18 H3          2.4750    1.4289    0.0000 H1        1 <0>        0.00000
     19 H4          3.1895    1.8414    0.0000 HC        1 <0>        0.00000
     20 H5          3.1895    1.8414    0.0000 HC        1 <0>        0.00000
     21 H6          3.9039    1.4289    0.0000 H1        1 <0>        0.00000
     22 H7          3.9039    0.6039    0.0000 HO        1 <0>        0.00000
     23 H8          4.6184    1.8414    0.0000 H1        1 <0>        0.00000
     24 H9          4.6184    2.6664    0.0000 HO        1 <0>        0.00000
     25 H10         5.3329    1.4289    0.0000 H1        1 <0>        0.00000
     26 H11         5.3329    0.6039    0.0000 HO        1 <0>        0.00000
     27 H12         6.0474    1.8414    0.0000 HA        1 <0>        0.00000
     28 H13         6.7618    1.4289    0.0000 HA        1 <0>        0.00000
     29 H14         8.1908    2.2539    0.0000 HO        1 <0>        0.00000
     30 H15         7.8888    1.1270    0.0000 HO        1 <0>        0.00000
@<TRIPOS>BOND
     1    1    2 1
     2    2    3 1
     3    3    4 1
     4    4    5 1
     5    4    6 1
     6    6    7 1
     7    6    8 1
     8    8    9 1
     9    8   10 1
    10   10   11 2
    11   11   12 1
    12   12   13 1
    13   12   14 1
    14   12   15 2
    15    1   16 1
    16    2   17 1
    17    2   18 1
    18    3   19 1
    19    3   20 1
    20    4   21 1
    21    5   22 1
    22    6   23 1
    23    7   24 1
    24    8   25 1
    25    9   26 1
    26   10   27 1
    27   11   28 1
    28   13   29 1
    29   14   30 1
@<TRIPOS>SUBSTRUCTURE
     1 <0>         1 GROUP 0 A     ****
@<TRIPOS>MOLECULE
MiniDrugBank_5
   85    87     1     0     0
SMALL
NO_CHARGES

@<TRIPOS>ATOM
      1 C1          0.7642    0.0140    0.0000 CT        1 <0>        0.00000
      2 C2          0.3517    0.7285    0.0000 CT        1 <0>        0.00000
      3 C3         -0.0608    1.4430    0.0000 CT        1 <0>        0.00000
      4 C4         -0.3628    0.3160    0.0000 CT        1 <0>        0.00000
      5 O1         -1.0772    0.7285    0.0000 OS        1 <0>        0.00000
      6 P1         -1.7917    0.3160    0.0000 P         1 <0>        0.00000
      7 O2         -1.3792   -0.3985    0.0000 OH        1 <0>        0.00000
      8 O3         -2.2042    1.0305    0.0000 O         1 <0>        0.00000
      9 O4         -2.5062   -0.0965    0.0000 OS        1 <0>        0.00000
     10 P2         -3.2206    0.3160    0.0000 P         1 <0>        0.00000
     11 O5         -3.6331   -0.3985    0.0000 OH        1 <0>        0.00000
     12 O6         -2.8081    1.0305    0.0000 O         1 <0>        0.00000
     13 O7         -3.9351    0.7285    0.0000 OS        1 <0>        0.00000
     14 C5         -4.6496    0.3160    0.0000 CT        1 <0>        0.00000
     15 C6         -5.3641    0.7285    0.0000 CT        1 <0>        0.00000
     16 O8         -6.1177    0.3929    0.0000 OS        1 <0>        0.00000
     17 C7         -6.6698    1.0060    0.0000 CT        1 <0>        0.00000
     18 C8         -6.2573    1.7205    0.0000 CT        1 <0>        0.00000
     19 O9         -6.5928    2.4742    0.0000 OH        1 <0>        0.00000
     20 C9         -5.4503    1.5490    0.0000 CT        1 <0>        0.00000
     21 O10        -4.8372    2.1010    0.0000 OS        1 <0>        0.00000
     22 P3         -4.0526    1.8461    0.0000 P         1 <0>        0.00000
     23 O11        -4.3075    1.0615    0.0000 OH        1 <0>        0.00000
     24 O12        -3.7976    2.6307    0.0000 OH        1 <0>        0.00000
     25 O13        -3.2679    1.5911    0.0000 O         1 <0>        0.00000
     26 N1         -7.4902    0.9198    0.0000 N*        1 <0>        0.00000
     27 C10        -8.0423    1.5329    0.0000 CR        1 <0>        0.00000
     28 N2         -8.7959    1.1973    0.0000 NB        1 <0>        0.00000
     29 C11        -8.7097    0.3769    0.0000 CB        1 <0>        0.00000
     30 C12        -7.9027    0.2053    0.0000 CB        1 <0>        0.00000
     31 N3         -7.6478   -0.5793    0.0000 NC        1 <0>        0.00000
     32 C13        -8.1998   -1.1924    0.0000 CA        1 <0>        0.00000
     33 N4         -9.0068   -1.0209    0.0000 NC        1 <0>        0.00000
     34 C14        -9.2617   -0.2362    0.0000 CA        1 <0>        0.00000
     35 N5        -10.0687   -0.0647    0.0000 N2        1 <0>        0.00000
     36 C15         1.0662    1.1410    0.0000 CT        1 <0>        0.00000
     37 O14         1.0662    1.9660    0.0000 OH        1 <0>        0.00000
     38 C16         1.7807    0.7285    0.0000 C         1 <0>        0.00000
     39 O15         1.7807   -0.0965    0.0000 O         1 <0>        0.00000
     40 N6          2.4951    1.1410    0.0000 N         1 <0>        0.00000
     41 C17         3.2096    0.7285    0.0000 CT        1 <0>        0.00000
     42 C18         3.9241    1.1410    0.0000 CT        1 <0>        0.00000
     43 C19         4.6385    0.7285    0.0000 C         1 <0>        0.00000
     44 O16         4.6385   -0.0965    0.0000 O         1 <0>        0.00000
     45 N7          5.3530    1.1410    0.0000 N         1 <0>        0.00000
     46 C20         6.0675    0.7285    0.0000 CT        1 <0>        0.00000
     47 C21         6.7820    1.1410    0.0000 CT        1 <0>        0.00000
     48 S1          7.4964    0.7285    0.0000 S         1 <0>        0.00000
     49 O17         8.2109    1.1410    0.0000 OH        1 <0>        0.00000
     50 H1          0.7642    0.0140    0.0000 HC        1 <0>        0.00000
     51 H2          0.7642    0.0140    0.0000 HC        1 <0>        0.00000
     52 H3          0.7642    0.0140    0.0000 HC        1 <0>        0.00000
     53 H4         -0.0608    1.4430    0.0000 HC        1 <0>        0.00000
     54 H5         -0.0608    1.4430    0.0000 HC        1 <0>        0.00000
     55 H6         -0.0608    1.4430    0.0000 HC        1 <0>        0.00000
     56 H7         -0.3628    0.3160    0.0000 H1        1 <0>        0.00000
     57 H8         -0.3628    0.3160    0.0000 H1        1 <0>        0.00000
     58 H9         -1.3792   -0.3985    0.0000 HO        1 <0>        0.00000
     59 H10        -3.6331   -0.3985    0.0000 HO        1 <0>        0.00000
     60 H11        -4.6496    0.3160    0.0000 H1        1 <0>        0.00000
     61 H12        -4.6496    0.3160    0.0000 H1        1 <0>        0.00000
     62 H13        -5.3641    0.7285    0.0000 H1        1 <0>        0.00000
     63 H14        -6.6698    1.0060    0.0000 H2        1 <0>        0.00000
     64 H15        -6.2573    1.7205    0.0000 H1        1 <0>        0.00000
     65 H16        -6.5928    2.4742    0.0000 HO        1 <0>        0.00000
     66 H17        -5.4503    1.5490    0.0000 H1        1 <0>        0.00000
     67 H18        -4.3075    1.0615    0.0000 HO        1 <0>        0.00000
     68 H19        -3.7976    2.6307    0.0000 HO        1 <0>        0.00000
     69 H20        -8.0423    1.5329    0.0000 H5        1 <0>        0.00000
     70 H21        -8.1998   -1.1924    0.0000 H5        1 <0>        0.00000
     71 H22       -10.0687   -0.0647    0.0000 H         1 <0>        0.00000
     72 H23       -10.0687   -0.0647    0.0000 H         1 <0>        0.00000
     73 H24         1.0662    1.1410    0.0000 H1        1 <0>        0.00000
     74 H25         1.0662    1.9660    0.0000 HO        1 <0>        0.00000
     75 H26         2.4951    1.1410    0.0000 H         1 <0>        0.00000
     76 H27         3.2096    0.7285    0.0000 H1        1 <0>        0.00000
     77 H28         3.2096    0.7285    0.0000 H1        1 <0>        0.00000
     78 H29         3.9241    1.1410    0.0000 HC        1 <0>        0.00000
     79 H30         3.9241    1.1410    0.0000 HC        1 <0>        0.00000
     80 H31         5.3530    1.1410    0.0000 H         1 <0>        0.00000
     81 H32         6.0675    0.7285    0.0000 H1        1 <0>        0.00000
     82 H33         6.0675    0.7285    0.0000 H1        1 <0>        0.00000
     83 H34         6.7820    1.1410    0.0000 H1        1 <0>        0.00000
     84 H35         6.7820    1.1410    0.0000 H1        1 <0>        0.00000
     85 H36         8.2109    1.1410    0.0000 HO        1 <0>        0.00000
@<TRIPOS>BOND
     1    1    2 1
     2    2    3 1
     3    2    4 1
     4    4    5 1
     5    5    6 1
     6    6    7 1
     7    6    8 2
     8    6    9 1
     9    9   10 1
    10   10   11 1
    11   10   12 2
    12   10   13 1
    13   13   14 1
    14   14   15 1
    15   15   16 1
    16   16   17 1
    17   17   18 1
    18   18   19 1
    19   18   20 1
    20   15   20 1
    21   20   21 1
    22   21   22 1
    23   22   23 1
    24   22   24 1
    25   22   25 2
    26   17   26 1
    27   26   27 1
    28   27   28 2
    29   28   29 1
    30   29   30 ar
    31   26   30 1
    32   30   31 ar
    33   31   32 ar
    34   32   33 ar
    35   33   34 ar
    36   29   34 ar
    37   34   35 1
    38    2   36 1
    39   36   37 1
    40   36   38 1
    41   38   39 2
    42   38   40 am
    43   40   41 1
    44   41   42 1
    45   42   43 1
    46   43   44 2
    47   43   45 am
    48   45   46 1
    49   46   47 1
    50   47   48 1
    51   48   49 1
    52    1   50 1
    53    1   51 1
    54    1   52 1
    55    3   53 1
    56    3   54 1
    57    3   55 1
    58    4   56 1
    59    4   57 1
    60    7   58 1
    61   11   59 1
    62   14   60 1
    63   14   61 1
    64   15   62 1
    65   17   63 1
    66   18   64 1
    67   19   65 1
    68   20   66 1
    69   23   67 1
    70   24   68 1
    71   27   69 1
    72   32   70 1
    73   35   71 1
    74   35   72 1
    75   36   73 1
    76   37   74 1
    77   40   75 1
    78   41   76 1
    79   41   77 1
    80   42   78 1
    81   42   79 1
    82   45   80 1
    83   46   81 1
    84   46   82 1
    85   47   83 1
    86   47   84 1
    87   49   85 1
@<TRIPOS>SUBSTRUCTURE
     1 <0>         1 GROUP 0 A     ****
@<TRIPOS>MOLECULE
MiniDrugBank_6
   65    65     1     0     0
SMALL
NO_CHARGES

@<TRIPOS>ATOM
      1 N1         -0.3615    0.4659    0.0000 NB        1 <0>        0.00000
      2 C1         -0.0337    1.2230    0.0000 C         1 <0>        0.00000
      3 N2         -0.5254    1.8854    0.0000 N         1 <0>        0.00000
      4 C2          0.7859    1.3176    0.0000 CA        1 <0>        0.00000
      5 C3          1.1137    2.0747    0.0000 CA        1 <0>        0.00000
      6 C4          1.9332    2.1693    0.0000 CA        1 <0>        0.00000
      7 C5          2.4250    1.5069    0.0000 CA        1 <0>        0.00000
      8 C6          3.2445    1.6015    0.0000 CT        1 <0>        0.00000
      9 N3          3.7363    0.9391    0.0000 N         1 <0>        0.00000
     10 C7          4.5558    1.0337    0.0000 C         1 <0>        0.00000
     11 O1          4.8836    1.7908    0.0000 O         1 <0>        0.00000
     12 C8          5.0476    0.3713    0.0000 CT        1 <0>        0.00000
     13 C9          4.7197   -0.3858    0.0000 CT        1 <0>        0.00000
     14 C10         3.9002   -0.4804    0.0000 CT        1 <0>        0.00000
     15 S1          3.5724   -1.2375    0.0000 S         1 <0>        0.00000
     16 C11         2.7528   -1.3321    0.0000 CT        1 <0>        0.00000
     17 N4          5.8671    0.4659    0.0000 N         1 <0>        0.00000
     18 C12         6.3588   -0.1965    0.0000 C         1 <0>        0.00000
     19 O2          6.0310   -0.9536    0.0000 O         1 <0>        0.00000
     20 C13         7.1784   -0.1019    0.0000 CT        1 <0>        0.00000
     21 N5          7.6701   -0.7643    0.0000 N3        1 <0>        0.00000
     22 S2          8.4897   -0.6697    0.0000 SO        1 <0>        0.00000
     23 O3          8.5843   -1.4893    0.0000 O2        1 <0>        0.00000
     24 O4          8.3950    0.1499    0.0000 O2        1 <0>        0.00000
     25 C14         9.3092   -0.5751    0.0000 CT        1 <0>        0.00000
     26 C15         9.8010   -1.2375    0.0000 CT        1 <0>        0.00000
     27 C16        10.6205   -1.1429    0.0000 CT        1 <0>        0.00000
     28 C17         7.5062    0.6552    0.0000 CT        1 <0>        0.00000
     29 C18         8.3258    0.7498    0.0000 CT        1 <0>        0.00000
     30 O5          7.0145    1.3176    0.0000 OH        1 <0>        0.00000
     31 C19         2.0972    0.7498    0.0000 CA        1 <0>        0.00000
     32 C20         1.2776    0.6552    0.0000 CA        1 <0>        0.00000
     33 H1         -0.3615    0.4659    0.0000 H         1 <0>        0.00000
     34 H2         -0.5254    1.8854    0.0000 H         1 <0>        0.00000
     35 H3         -0.5254    1.8854    0.0000 H         1 <0>        0.00000
     36 H4          1.1137    2.0747    0.0000 HA        1 <0>        0.00000
     37 H5          1.9332    2.1693    0.0000 HA        1 <0>        0.00000
     38 H6          3.2445    1.6015    0.0000 H1        1 <0>        0.00000
     39 H7          3.2445    1.6015    0.0000 H1        1 <0>        0.00000
     40 H8          3.7363    0.9391    0.0000 H         1 <0>        0.00000
     41 H9          5.0476    0.3713    0.0000 H1        1 <0>        0.00000
     42 H10         4.7197   -0.3858    0.0000 HC        1 <0>        0.00000
     43 H11         4.7197   -0.3858    0.0000 HC        1 <0>        0.00000
     44 H12         3.9002   -0.4804    0.0000 H1        1 <0>        0.00000
     45 H13         3.9002   -0.4804    0.0000 H1        1 <0>        0.00000
     46 H14         2.7528   -1.3321    0.0000 H1        1 <0>        0.00000
     47 H15         2.7528   -1.3321    0.0000 H1        1 <0>        0.00000
     48 H16         2.7528   -1.3321    0.0000 H1        1 <0>        0.00000
     49 H17         5.8671    0.4659    0.0000 H         1 <0>        0.00000
     50 H18         7.1784   -0.1019    0.0000 H1        1 <0>        0.00000
     51 H19         7.6701   -0.7643    0.0000 H         1 <0>        0.00000
     52 H20         9.3092   -0.5751    0.0000 H1        1 <0>        0.00000
     53 H21         9.3092   -0.5751    0.0000 H1        1 <0>        0.00000
     54 H22         9.8010   -1.2375    0.0000 HC        1 <0>        0.00000
     55 H23         9.8010   -1.2375    0.0000 HC        1 <0>        0.00000
     56 H24        10.6205   -1.1429    0.0000 HC        1 <0>        0.00000
     57 H25        10.6205   -1.1429    0.0000 HC        1 <0>        0.00000
     58 H26        10.6205   -1.1429    0.0000 HC        1 <0>        0.00000
     59 H27         7.5062    0.6552    0.0000 H1        1 <0>        0.00000
     60 H28         8.3258    0.7498    0.0000 HC        1 <0>        0.00000
     61 H29         8.3258    0.7498    0.0000 HC        1 <0>        0.00000
     62 H30         8.3258    0.7498    0.0000 HC        1 <0>        0.00000
     63 H31         7.0145    1.3176    0.0000 HO        1 <0>        0.00000
     64 H32         2.0972    0.7498    0.0000 HA        1 <0>        0.00000
     65 H33         1.2776    0.6552    0.0000 HA        1 <0>        0.00000
@<TRIPOS>BOND
     1    1    2 2
     2    2    3 1
     3    2    4 1
     4    4    5 ar
     5    5    6 ar
     6    6    7 ar
     7    7    8 1
     8    8    9 1
     9    9   10 am
    10   10   11 2
    11   10   12 1
    12   12   13 1
    13   13   14 1
    14   14   15 1
    15   15   16 1
    16   12   17 1
    17   17   18 am
    18   18   19 2
    19   18   20 1
    20   20   21 1
    21   21   22 1
    22   22   23 2
    23   22   24 2
    24   22   25 1
    25   25   26 1
    26   26   27 1
    27   20   28 1
    28   28   29 1
    29   28   30 1
    30    7   31 ar
    31   31   32 ar
    32    4   32 ar
    33    1   33 1
    34    3   34 1
    35    3   35 1
    36    5   36 1
    37    6   37 1
    38    8   38 1
    39    8   39 1
    40    9   40 1
    41   12   41 1
    42   13   42 1
    43   13   43 1
    44   14   44 1
    45   14   45 1
    46   16   46 1
    47   16   47 1
    48   16   48 1
    49   17   49 1
    50   20   50 1
    51   21   51 1
    52   25   52 1
    53   25   53 1
    54   26   54 1
    55   26   55 1
    56   27   56 1
    57   27   57 1
    58   27   58 1
    59   28   59 1
    60   29   60 1
    61   29   61 1
    62   29   62 1
    63   30   63 1
    64   31   64 1
    65   32   65 1
@<TRIPOS>SUBSTRUCTURE
     1 <0>         1 GROUP 0 A     ****
@<TRIPOS>MOLECULE
669
   41    42     1     0     0
SMALL
NO_CHARGES

@<TRIPOS>ATOM
      1 S1          3.0791   -0.5207    0.0000 SO        1 <0>        0.00000
      2 O1          3.4916   -1.2351    0.0000 O2        1 <0>        0.00000
      3 O2          2.6665    0.1938    0.0000 O2        1 <0>        0.00000
      4 N1          6.7176   -1.5972    0.0000 NA        1 <0>        0.00000
      5 N2          8.0375    1.4693    0.0000 N3        1 <0>        0.00000
      6 N3          2.3645   -0.9332    0.0000 N3        1 <0>        0.00000
      7 C1          6.7176   -0.2693    0.0000 CC        1 <0>        0.00000
      8 C2          5.9370   -0.5207    0.0000 CB        1 <0>        0.00000
      9 C3          6.9739    0.5149    0.0000 CT        1 <0>        0.00000
     10 C4          5.9370   -1.3457    0.0000 CB        1 <0>        0.00000
     11 C5          4.5080   -0.5207    0.0000 CA        1 <0>        0.00000
     12 C6          7.7812    0.6851    0.0000 CT        1 <0>        0.00000
     13 C7          5.2224   -0.1082    0.0000 CA        1 <0>        0.00000
     14 C8          7.1991   -0.9332    0.0000 CW        1 <0>        0.00000
     15 C9          3.7935   -0.1082    0.0000 CT        1 <0>        0.00000
     16 C10         5.2224   -1.7582    0.0000 CA        1 <0>        0.00000
     17 C11         4.5080   -1.3457    0.0000 CA        1 <0>        0.00000
     18 C12         8.8448    1.6394    0.0000 CT        1 <0>        0.00000
     19 C13         7.4865    2.0833    0.0000 CT        1 <0>        0.00000
     20 C14         1.6500   -0.5207    0.0000 CT        1 <0>        0.00000
     21 H1          6.7176   -1.5972    0.0000 H         1 <0>        0.00000
     22 H2          2.3645   -0.9332    0.0000 H         1 <0>        0.00000
     23 H3          6.9739    0.5149    0.0000 HC        1 <0>        0.00000
     24 H4          6.9739    0.5149    0.0000 HC        1 <0>        0.00000
     25 H5          7.7812    0.6851    0.0000 H1        1 <0>        0.00000
     26 H6          7.7812    0.6851    0.0000 H1        1 <0>        0.00000
     27 H7          5.2224   -0.1082    0.0000 HA        1 <0>        0.00000
     28 H8          7.1991   -0.9332    0.0000 H4        1 <0>        0.00000
     29 H9          3.7935   -0.1082    0.0000 H1        1 <0>        0.00000
     30 H10         3.7935   -0.1082    0.0000 H1        1 <0>        0.00000
     31 H11         5.2224   -1.7582    0.0000 HA        1 <0>        0.00000
     32 H12         4.5080   -1.3457    0.0000 HA        1 <0>        0.00000
     33 H13         8.8448    1.6394    0.0000 H1        1 <0>        0.00000
     34 H14         8.8448    1.6394    0.0000 H1        1 <0>        0.00000
     35 H15         8.8448    1.6394    0.0000 H1        1 <0>        0.00000
     36 H16         7.4865    2.0833    0.0000 H1        1 <0>        0.00000
     37 H17         7.4865    2.0833    0.0000 H1        1 <0>        0.00000
     38 H18         7.4865    2.0833    0.0000 H1        1 <0>        0.00000
     39 H19         1.6500   -0.5207    0.0000 H1        1 <0>        0.00000
     40 H20         1.6500   -0.5207    0.0000 H1        1 <0>        0.00000
     41 H21         1.6500   -0.5207    0.0000 H1        1 <0>        0.00000
@<TRIPOS>BOND
     1    1    2 2
     2    1    3 2
     3    1    6 1
     4    1   15 1
     5    4   10 1
     6    4   14 1
     7    5   12 1
     8    5   18 1
     9    5   19 1
    10    6   20 1
    11    7    8 1
    12    7    9 1
    13    7   14 2
    14    8   10 ar
    15    8   13 ar
    16    9   12 1
    17   10   16 ar
    18   11   13 ar
    19   11   15 1
    20   11   17 ar
    21   16   17 ar
    22    4   21 1
    23    6   22 1
    24    9   23 1
    25    9   24 1
    26   12   25 1
    27   12   26 1
    28   13   27 1
    29   14   28 1
    30   15   29 1
    31   15   30 1
    32   16   31 1
    33   17   32 1
    34   18   33 1
    35   18   34 1
    36   18   35 1
    37   19   36 1
    38   19   37 1
    39   19   38 1
    40   20   39 1
    41   20   40 1
    42   20   41 1
@<TRIPOS>SUBSTRUCTURE
     1 <0>         1 GROUP 0 A     ****
@<TRIPOS>MOLECULE
MiniDrugBank_8
   72    73     1     0     0
SMALL
NO_CHARGES

@<TRIPOS>ATOM
      1 C1         -8.2021   -6.8144    0.0000 CT        1 <0>        0.00000
      2 C2         -8.0306   -6.0074    0.0000 CT        1 <0>        0.00000
      3 C3         -8.6437   -5.4554    0.0000 CT        1 <0>        0.00000
      4 C4         -7.2460   -5.7525    0.0000 CT        1 <0>        0.00000
      5 C5         -6.6329   -6.3045    0.0000 CT        1 <0>        0.00000
      6 N1         -6.8044   -7.1115    0.0000 N3        1 <0>        0.00000
      7 S1         -7.5890   -7.3664    0.0000 SO        1 <0>        0.00000
      8 O1         -7.3341   -8.1510    0.0000 O2        1 <0>        0.00000
      9 O2         -7.8440   -6.5818    0.0000 O2        1 <0>        0.00000
     10 C6         -8.3736   -7.6213    0.0000 CT        1 <0>        0.00000
     11 C7         -8.5452   -8.4283    0.0000 CA        1 <0>        0.00000
     12 C8         -7.9321   -8.9803    0.0000 CA        1 <0>        0.00000
     13 C9         -8.1036   -9.7873    0.0000 CA        1 <0>        0.00000
     14 C10        -8.8882  -10.0423    0.0000 CA        1 <0>        0.00000
     15 C11        -9.5013   -9.4902    0.0000 CA        1 <0>        0.00000
     16 C12        -9.3298   -8.6832    0.0000 CA        1 <0>        0.00000
     17 C13        -5.8482   -6.0495    0.0000 C         1 <0>        0.00000
     18 O3         -5.2351   -6.6016    0.0000 O         1 <0>        0.00000
     19 N2         -5.6767   -5.2426    0.0000 N         1 <0>        0.00000
     20 C14        -6.2287   -4.6295    0.0000 CT        1 <0>        0.00000
     21 C15        -5.8162   -3.9150    0.0000 CT        1 <0>        0.00000
     22 C16        -5.0093   -4.0865    0.0000 CT        1 <0>        0.00000
     23 C17        -4.9230   -4.9070    0.0000 CT        1 <0>        0.00000
     24 C18        -4.2086   -5.3195    0.0000 C         1 <0>        0.00000
     25 O4         -4.2086   -6.1445    0.0000 O         1 <0>        0.00000
     26 N3         -3.4941   -4.9070    0.0000 N         1 <0>        0.00000
     27 C19        -2.7796   -5.3195    0.0000 CT        1 <0>        0.00000
     28 C20        -2.0652   -4.9070    0.0000 CT        1 <0>        0.00000
     29 C21        -1.3507   -5.3195    0.0000 CT        1 <0>        0.00000
     30 C22        -0.6362   -4.9070    0.0000 CT        1 <0>        0.00000
     31 N4          0.0783   -5.3195    0.0000 NB        1 <0>        0.00000
     32 C23         0.7927   -4.9070    0.0000 C         1 <0>        0.00000
     33 N5          0.7927   -4.0820    0.0000 N         1 <0>        0.00000
     34 N6          1.5072   -5.3195    0.0000 N         1 <0>        0.00000
     35 H1         -8.2021   -6.8144    0.0000 HC        1 <0>        0.00000
     36 H2         -8.2021   -6.8144    0.0000 HC        1 <0>        0.00000
     37 H3         -8.2021   -6.8144    0.0000 HC        1 <0>        0.00000
     38 H4         -8.0306   -6.0074    0.0000 HC        1 <0>        0.00000
     39 H5         -8.6437   -5.4554    0.0000 HC        1 <0>        0.00000
     40 H6         -8.6437   -5.4554    0.0000 HC        1 <0>        0.00000
     41 H7         -8.6437   -5.4554    0.0000 HC        1 <0>        0.00000
     42 H8         -7.2460   -5.7525    0.0000 HC        1 <0>        0.00000
     43 H9         -7.2460   -5.7525    0.0000 HC        1 <0>        0.00000
     44 H10        -6.6329   -6.3045    0.0000 H1        1 <0>        0.00000
     45 H11        -6.8044   -7.1115    0.0000 H         1 <0>        0.00000
     46 H12        -8.3736   -7.6213    0.0000 H1        1 <0>        0.00000
     47 H13        -8.3736   -7.6213    0.0000 H1        1 <0>        0.00000
     48 H14        -7.9321   -8.9803    0.0000 HA        1 <0>        0.00000
     49 H15        -8.1036   -9.7873    0.0000 HA        1 <0>        0.00000
     50 H16        -8.8882  -10.0423    0.0000 HA        1 <0>        0.00000
     51 H17        -9.5013   -9.4902    0.0000 HA        1 <0>        0.00000
     52 H18        -9.3298   -8.6832    0.0000 HA        1 <0>        0.00000
     53 H19        -6.2287   -4.6295    0.0000 H1        1 <0>        0.00000
     54 H20        -6.2287   -4.6295    0.0000 H1        1 <0>        0.00000
     55 H21        -5.8162   -3.9150    0.0000 HC        1 <0>        0.00000
     56 H22        -5.8162   -3.9150    0.0000 HC        1 <0>        0.00000
     57 H23        -5.0093   -4.0865    0.0000 HC        1 <0>        0.00000
     58 H24        -5.0093   -4.0865    0.0000 HC        1 <0>        0.00000
     59 H25        -4.9230   -4.9070    0.0000 H1        1 <0>        0.00000
     60 H26        -3.4941   -4.9070    0.0000 H         1 <0>        0.00000
     61 H27        -2.7796   -5.3195    0.0000 H1        1 <0>        0.00000
     62 H28        -2.7796   -5.3195    0.0000 H1        1 <0>        0.00000
     63 H29        -2.0652   -4.9070    0.0000 HC        1 <0>        0.00000
     64 H30        -2.0652   -4.9070    0.0000 HC        1 <0>        0.00000
     65 H31        -1.3507   -5.3195    0.0000 HC        1 <0>        0.00000
     66 H32        -1.3507   -5.3195    0.0000 HC        1 <0>        0.00000
     67 H33        -0.6362   -4.9070    0.0000 H1        1 <0>        0.00000
     68 H34        -0.6362   -4.9070    0.0000 H1        1 <0>        0.00000
     69 H35         0.7927   -4.0820    0.0000 H         1 <0>        0.00000
     70 H36         0.7927   -4.0820    0.0000 H         1 <0>        0.00000
     71 H37         1.5072   -5.3195    0.0000 H         1 <0>        0.00000
     72 H38         1.5072   -5.3195    0.0000 H         1 <0>        0.00000
@<TRIPOS>BOND
     1    1    2 1
     2    2    3 1
     3    2    4 1
     4    4    5 1
     5    5    6 1
     6    6    7 1
     7    7    8 2
     8    7    9 2
     9    7   10 1
    10   10   11 1
    11   11   12 ar
    12   12   13 ar
    13   13   14 ar
    14   14   15 ar
    15   15   16 ar
    16   11   16 ar
    17    5   17 1
    18   17   18 2
    19   17   19 am
    20   19   20 1
    21   20   21 1
    22   21   22 1
    23   22   23 1
    24   19   23 1
    25   23   24 1
    26   24   25 2
    27   24   26 am
    28   26   27 1
    29   27   28 1
    30   28   29 1
    31   29   30 1
    32   30   31 1
    33   31   32 2
    34   32   33 1
    35   32   34 1
    36    1   35 1
    37    1   36 1
    38    1   37 1
    39    2   38 1
    40    3   39 1
    41    3   40 1
    42    3   41 1
    43    4   42 1
    44    4   43 1
    45    5   44 1
    46    6   45 1
    47   10   46 1
    48   10   47 1
    49   12   48 1
    50   13   49 1
    51   14   50 1
    52   15   51 1
    53   16   52 1
    54   20   53 1
    55   20   54 1
    56   21   55 1
    57   21   56 1
    58   22   57 1
    59   22   58 1
    60   23   59 1
    61   26   60 1
    62   27   61 1
    63   27   62 1
    64   28   63 1
    65   28   64 1
    66   29   65 1
    67   29   66 1
    68   30   67 1
    69   30   68 1
    70   33   69 1
    71   33   70 1
    72   34   71 1
    73   34   72 1
@<TRIPOS>SUBSTRUCTURE
     1 <0>         1 GROUP 0 A     ****
@<TRIPOS>MOLECULE
SCZ
   45    49     1     0     0
SMALL
NO_CHARGES

@<TRIPOS>ATOM
      1 C1         -1.2769    1.0517    0.0000 CC        1 <0>        0.00000
      2 C2         -0.4923    0.7968    0.0000 CW        1 <0>        0.00000
      3 N1         -0.4923   -0.0282    0.0000 N*        1 <0>        0.00000
      4 N2         -1.2769   -0.2832    0.0000 NB        1 <0>        0.00000
      5 C3         -1.7618    0.3843    0.0000 CR        1 <0>        0.00000
      6 N3          0.2222    1.2093    0.0000 NC        1 <0>        0.00000
      7 C4          0.9367    0.7968    0.0000 CP        1 <0>        0.00000
      8 C5          0.9367   -0.0282    0.0000 CA        1 <0>        0.00000
      9 C6          0.2222   -0.4407    0.0000 CA        1 <0>        0.00000
     10 N4          0.2222   -1.2657    0.0000 N2        1 <0>        0.00000
     11 C7          1.6512    1.2093    0.0000 CP        1 <0>        0.00000
     12 C8         -0.4923   -1.6782    0.0000 CT        1 <0>        0.00000
     13 C9         -0.4923   -2.5032    0.0000 CA        1 <0>        0.00000
     14 C10        -1.2067   -2.9157    0.0000 CA        1 <0>        0.00000
     15 N5         -1.2067   -3.7407    0.0000 NC        1 <0>        0.00000
     16 C11        -0.4923   -4.1532    0.0000 CA        1 <0>        0.00000
     17 C12         0.2222   -3.7407    0.0000 CA        1 <0>        0.00000
     18 C13         0.2222   -2.9157    0.0000 CA        1 <0>        0.00000
     19 C14         2.3656    0.7968    0.0000 CA        1 <0>        0.00000
     20 C15         3.0801    1.2093    0.0000 CA        1 <0>        0.00000
     21 C16         3.0801    2.0343    0.0000 CA        1 <0>        0.00000
     22 C17         2.3656    2.4468    0.0000 CA        1 <0>        0.00000
     23 C18         1.6512    2.0343    0.0000 CA        1 <0>        0.00000
     24 C19        -1.5318    1.8363    0.0000 CJ        1 <0>        0.00000
     25 C20        -2.1449    2.3884    0.0000 CJ        1 <0>        0.00000
     26 C21        -1.3603    2.6433    0.0000 CJ        1 <0>        0.00000
     27 H1         -1.7618    0.3843    0.0000 H4        1 <0>        0.00000
     28 H2          0.9367   -0.0282    0.0000 HA        1 <0>        0.00000
     29 H3          0.2222   -1.2657    0.0000 H         1 <0>        0.00000
     30 H4         -0.4923   -1.6782    0.0000 H1        1 <0>        0.00000
     31 H5         -0.4923   -1.6782    0.0000 H1        1 <0>        0.00000
     32 H6         -1.2067   -2.9157    0.0000 H4        1 <0>        0.00000
     33 H7         -0.4923   -4.1532    0.0000 H4        1 <0>        0.00000
     34 H8          0.2222   -3.7407    0.0000 HA        1 <0>        0.00000
     35 H9          0.2222   -2.9157    0.0000 HA        1 <0>        0.00000
     36 H10         2.3656    0.7968    0.0000 HA        1 <0>        0.00000
     37 H11         3.0801    1.2093    0.0000 HA        1 <0>        0.00000
     38 H12         3.0801    2.0343    0.0000 HA        1 <0>        0.00000
     39 H13         2.3656    2.4468    0.0000 HA        1 <0>        0.00000
     40 H14         1.6512    2.0343    0.0000 HA        1 <0>        0.00000
     41 H15        -1.5318    1.8363    0.0000 HC        1 <0>        0.00000
     42 H16        -2.1449    2.3884    0.0000 HC        1 <0>        0.00000
     43 H17        -2.1449    2.3884    0.0000 HC        1 <0>        0.00000
     44 H18        -1.3603    2.6433    0.0000 HC        1 <0>        0.00000
     45 H19        -1.3603    2.6433    0.0000 HC        1 <0>        0.00000
@<TRIPOS>BOND
     1    1    2 2
     2    1   24 1
     3    2    6 1
     4    2    3 1
     5    4    5 2
     6    3    4 1
     7    1    5 1
     8    6    7 2
     9    7   11 1
    10    7    8 1
    11    3    9 1
    12    8    9 2
    13   10   12 1
    14    9   10 1
    15   11   23 ar
    16   11   19 ar
    17   13   18 ar
    18   12   13 1
    19   13   14 ar
    20   15   16 ar
    21   14   15 ar
    22   16   17 ar
    23   17   18 ar
    24   19   20 ar
    25   20   21 ar
    26   21   22 ar
    27   22   23 ar
    28   24   25 1
    29   24   26 1
    30   25   26 1
    31    5   27 1
    32    8   28 1
    33   10   29 1
    34   12   30 1
    35   12   31 1
    36   14   32 1
    37   16   33 1
    38   17   34 1
    39   18   35 1
    40   19   36 1
    41   20   37 1
    42   21   38 1
    43   22   39 1
    44   23   40 1
    45   24   41 1
    46   25   42 1
    47   25   43 1
    48   26   44 1
    49   26   45 1
@<TRIPOS>SUBSTRUCTURE
     1 <0>         1 GROUP 0 A     ****
@<TRIPOS>MOLECULE
677
   25    24     1     0     0
SMALL
NO_CHARGES

@<TRIPOS>ATOM
      1 P1          3.7935    0.0000    0.0000 P         1 <0>        0.00000
      2 F1          3.3810    0.7145    0.0000 F         1 <0>        0.00000
      3 O1          4.5080    0.4125    0.0000 OS        1 <0>        0.00000
      4 O2          3.0791   -0.4125    0.0000 OS        1 <0>        0.00000
      5 O3          4.2060   -0.7145    0.0000 O         1 <0>        0.00000
      6 C1          5.2224    0.0000    0.0000 CT        1 <0>        0.00000
      7 C2          2.3645    0.0000    0.0000 CT        1 <0>        0.00000
      8 C3          5.9370    0.4125    0.0000 CT        1 <0>        0.00000
      9 C4          5.2224   -0.8250    0.0000 CT        1 <0>        0.00000
     10 C5          1.6500   -0.4125    0.0000 CT        1 <0>        0.00000
     11 C6          2.3645    0.8250    0.0000 CT        1 <0>        0.00000
     12 H1          5.2224    0.0000    0.0000 H1        1 <0>        0.00000
     13 H2          2.3645    0.0000    0.0000 H1        1 <0>        0.00000
     14 H3          5.9370    0.4125    0.0000 HC        1 <0>        0.00000
     15 H4          5.9370    0.4125    0.0000 HC        1 <0>        0.00000
     16 H5          5.9370    0.4125    0.0000 HC        1 <0>        0.00000
     17 H6          5.2224   -0.8250    0.0000 HC        1 <0>        0.00000
     18 H7          5.2224   -0.8250    0.0000 HC        1 <0>        0.00000
     19 H8          5.2224   -0.8250    0.0000 HC        1 <0>        0.00000
     20 H9          1.6500   -0.4125    0.0000 HC        1 <0>        0.00000
     21 H10         1.6500   -0.4125    0.0000 HC        1 <0>        0.00000
     22 H11         1.6500   -0.4125    0.0000 HC        1 <0>        0.00000
     23 H12         2.3645    0.8250    0.0000 HC        1 <0>        0.00000
     24 H13         2.3645    0.8250    0.0000 HC        1 <0>        0.00000
     25 H14         2.3645    0.8250    0.0000 HC        1 <0>        0.00000
@<TRIPOS>BOND
     1    1    2 1
     2    1    3 1
     3    1    4 1
     4    1    5 2
     5    3    6 1
     6    4    7 1
     7    6    8 1
     8    6    9 1
     9    7   10 1
    10    7   11 1
    11    6   12 1
    12    7   13 1
    13    8   14 1
    14    8   15 1
    15    8   16 1
    16    9   17 1
    17    9   18 1
    18    9   19 1
    19   10   20 1
    20   10   21 1
    21   10   22 1
    22   11   23 1
    23   11   24 1
    24   11   25 1
@<TRIPOS>SUBSTRUCTURE
     1 <0>         1 GROUP 0 A     ****
@<TRIPOS>MOLECULE
MiniDrugBank_11
   34    33     1     0     0
SMALL
NO_CHARGES

@<TRIPOS>ATOM
      1 C1          2.2836   -0.4934    0.0000 CM        1 <0>        0.00000
      2 C2          2.2836   -1.3184    0.0000 C2        1 <0>        0.00000
      3 C3          2.2836   -2.1434    0.0000 CM        1 <0>        0.00000
      4 C4          2.9980   -2.5559    0.0000 CT        1 <0>        0.00000
      5 N1          3.7125   -2.1434    0.0000 N3        1 <0>        0.00000
      6 C5          4.4270   -2.5559    0.0000 CT        1 <0>        0.00000
      7 C6          5.1414   -2.1434    0.0000 CT        1 <0>        0.00000
      8 C7          5.8559   -2.5559    0.0000 CT        1 <0>        0.00000
      9 C8          6.5704   -2.1434    0.0000 CT        1 <0>        0.00000
     10 N2          7.2849   -2.5559    0.0000 N3        1 <0>        0.00000
     11 C9          7.9993   -2.1434    0.0000 CT        1 <0>        0.00000
     12 C10         8.7138   -2.5559    0.0000 CM        1 <0>        0.00000
     13 C11         9.4283   -2.1434    0.0000 C2        1 <0>        0.00000
     14 C12        10.1427   -1.7309    0.0000 CM        1 <0>        0.00000
     15 H1          2.2836   -0.4934    0.0000 HA        1 <0>        0.00000
     16 H2          2.2836   -0.4934    0.0000 HA        1 <0>        0.00000
     17 H3          2.2836   -2.1434    0.0000 HA        1 <0>        0.00000
     18 H4          2.9980   -2.5559    0.0000 H1        1 <0>        0.00000
     19 H5          2.9980   -2.5559    0.0000 H1        1 <0>        0.00000
     20 H6          3.7125   -2.1434    0.0000 H         1 <0>        0.00000
     21 H7          4.4270   -2.5559    0.0000 H1        1 <0>        0.00000
     22 H8          4.4270   -2.5559    0.0000 H1        1 <0>        0.00000
     23 H9          5.1414   -2.1434    0.0000 HC        1 <0>        0.00000
     24 H10         5.1414   -2.1434    0.0000 HC        1 <0>        0.00000
     25 H11         5.8559   -2.5559    0.0000 HC        1 <0>        0.00000
     26 H12         5.8559   -2.5559    0.0000 HC        1 <0>        0.00000
     27 H13         6.5704   -2.1434    0.0000 H1        1 <0>        0.00000
     28 H14         6.5704   -2.1434    0.0000 H1        1 <0>        0.00000
     29 H15         7.2849   -2.5559    0.0000 H         1 <0>        0.00000
     30 H16         7.9993   -2.1434    0.0000 H1        1 <0>        0.00000
     31 H17         7.9993   -2.1434    0.0000 H1        1 <0>        0.00000
     32 H18         8.7138   -2.5559    0.0000 HA        1 <0>        0.00000
     33 H19        10.1427   -1.7309    0.0000 HA        1 <0>        0.00000
     34 H20        10.1427   -1.7309    0.0000 HA        1 <0>        0.00000
@<TRIPOS>BOND
     1    1    2 2
     2    2    3 2
     3    3    4 1
     4    4    5 1
     5    5    6 1
     6    6    7 1
     7    7    8 1
     8    8    9 1
     9    9   10 1
    10   10   11 1
    11   11   12 1
    12   12   13 2
    13   13   14 2
    14    1   15 1
    15    1   16 1
    16    3   17 1
    17    4   18 1
    18    4   19 1
    19    5   20 1
    20    6   21 1
    21    6   22 1
    22    7   23 1
    23    7   24 1
    24    8   25 1
    25    8   26 1
    26    9   27 1
    27    9   28 1
    28   10   29 1
    29   11   30 1
    30   11   31 1
    31   12   32 1
    32   14   33 1
    33   14   34 1
@<TRIPOS>SUBSTRUCTURE
     1 <0>         1 GROUP 0 A     ****
@<TRIPOS>MOLECULE
MiniDrugBank_12
   50    53     1     0     0
SMALL
NO_CHARGES

@<TRIPOS>ATOM
      1 C1          5.3397   -5.8184    0.0000 CT        1 <0>        0.00000
      2 C2          4.6253   -5.4059    0.0000 CT        1 <0>        0.00000
      3 N1          4.6253   -4.5809    0.0000 N3        1 <0>        0.00000
      4 S1          3.9108   -4.1684    0.0000 S         1 <0>        0.00000
      5 C3          3.9108   -3.3434    0.0000 CM        1 <0>        0.00000
      6 N2          3.1963   -2.9309    0.0000 NB        1 <0>        0.00000
      7 C4          3.1963   -2.1059    0.0000 CA        1 <0>        0.00000
      8 C5          3.9108   -1.6934    0.0000 CA        1 <0>        0.00000
      9 C6          3.9108   -0.8684    0.0000 CA        1 <0>        0.00000
     10 C7          3.1963   -0.4559    0.0000 CA        1 <0>        0.00000
     11 C8          2.4818   -0.8684    0.0000 CA        1 <0>        0.00000
     12 C9          2.4818   -1.6934    0.0000 CA        1 <0>        0.00000
     13 C10         1.7674   -0.4559    0.0000 C         1 <0>        0.00000
     14 O1          1.2697    0.2020    0.0000 OH        1 <0>        0.00000
     15 O2          1.2273   -1.0796    0.0000 O         1 <0>        0.00000
     16 C11         3.1963    0.3691    0.0000 CA        1 <0>        0.00000
     17 C12         3.9108    0.7816    0.0000 CB        1 <0>        0.00000
     18 C13         4.6253    0.3691    0.0000 CA        1 <0>        0.00000
     19 C14         5.3397    0.7816    0.0000 CA        1 <0>        0.00000
     20 C15         5.3397    1.6066    0.0000 CA        1 <0>        0.00000
     21 O3          6.0542    2.0191    0.0000 OH        1 <0>        0.00000
     22 C16         4.6253    2.0191    0.0000 CA        1 <0>        0.00000
     23 C17         3.9108    1.6066    0.0000 CB        1 <0>        0.00000
     24 O4          3.1963    2.0191    0.0000 OS        1 <0>        0.00000
     25 C18         2.4818    1.6066    0.0000 CB        1 <0>        0.00000
     26 C19         1.7674    2.0191    0.0000 CA        1 <0>        0.00000
     27 C20         1.0529    1.6066    0.0000 CA        1 <0>        0.00000
     28 O5          0.3384    2.0191    0.0000 OH        1 <0>        0.00000
     29 C21         1.0529    0.7816    0.0000 CA        1 <0>        0.00000
     30 C22         1.7674    0.3691    0.0000 CA        1 <0>        0.00000
     31 C23         2.4818    0.7816    0.0000 CB        1 <0>        0.00000
     32 H1          5.3397   -5.8184    0.0000 HC        1 <0>        0.00000
     33 H2          5.3397   -5.8184    0.0000 HC        1 <0>        0.00000
     34 H3          5.3397   -5.8184    0.0000 HC        1 <0>        0.00000
     35 H4          4.6253   -5.4059    0.0000 H1        1 <0>        0.00000
     36 H5          4.6253   -5.4059    0.0000 H1        1 <0>        0.00000
     37 H6          4.6253   -4.5809    0.0000 H         1 <0>        0.00000
     38 H7          3.9108   -3.3434    0.0000 H5        1 <0>        0.00000
     39 H8          3.9108   -1.6934    0.0000 HA        1 <0>        0.00000
     40 H9          3.9108   -0.8684    0.0000 HA        1 <0>        0.00000
     41 H10         2.4818   -1.6934    0.0000 HA        1 <0>        0.00000
     42 H11         1.2697    0.2020    0.0000 HO        1 <0>        0.00000
     43 H12         4.6253    0.3691    0.0000 HA        1 <0>        0.00000
     44 H13         5.3397    0.7816    0.0000 HA        1 <0>        0.00000
     45 H14         6.0542    2.0191    0.0000 HO        1 <0>        0.00000
     46 H15         4.6253    2.0191    0.0000 HA        1 <0>        0.00000
     47 H16         1.7674    2.0191    0.0000 HA        1 <0>        0.00000
     48 H17         0.3384    2.0191    0.0000 HO        1 <0>        0.00000
     49 H18         1.0529    0.7816    0.0000 HA        1 <0>        0.00000
     50 H19         1.7674    0.3691    0.0000 HA        1 <0>        0.00000
@<TRIPOS>BOND
     1    1    2 1
     2    2    3 1
     3    3    4 1
     4    4    5 2
     5    5    6 1
     6    6    7 2
     7    7    8 1
     8    8    9 2
     9    9   10 1
    10   10   11 1
    11   11   12 2
    12    7   12 1
    13   11   13 1
    14   13   14 1
    15   13   15 2
    16   10   16 2
    17   16   17 1
    18   17   18 ar
    19   18   19 ar
    20   19   20 ar
    21   20   21 1
    22   20   22 ar
    23   22   23 ar
    24   17   23 ar
    25   23   24 1
    26   24   25 1
    27   25   26 ar
    28   26   27 ar
    29   27   28 1
    30   27   29 ar
    31   29   30 ar
    32   30   31 ar
    33   16   31 1
    34   25   31 ar
    35    1   32 1
    36    1   33 1
    37    1   34 1
    38    2   35 1
    39    2   36 1
    40    3   37 1
    41    5   38 1
    42    8   39 1
    43    9   40 1
    44   12   41 1
    45   14   42 1
    46   18   43 1
    47   19   44 1
    48   21   45 1
    49   22   46 1
    50   26   47 1
    51   28   48 1
    52   29   49 1
    53   30   50 1
@<TRIPOS>SUBSTRUCTURE
     1 <0>         1 GROUP 0 A     ****
@<TRIPOS>MOLECULE
UI3
   40    42     1     0     0
SMALL
NO_CHARGES

@<TRIPOS>ATOM
      1 C1         -1.3014   -1.5169    0.0000 CA        1 <0>        0.00000
      2 C2         -0.5869   -1.9294    0.0000 CA        1 <0>        0.00000
      3 C3          0.1275   -1.5169    0.0000 CB        1 <0>        0.00000
      4 C4          0.1275   -0.6919    0.0000 CB        1 <0>        0.00000
      5 C5         -0.5869   -0.2794    0.0000 CA        1 <0>        0.00000
      6 C6         -1.3014   -0.6919    0.0000 CA        1 <0>        0.00000
      7 C7          0.8420   -1.9294    0.0000 CA        1 <0>        0.00000
      8 C8          1.5565   -1.5169    0.0000 CA        1 <0>        0.00000
      9 C9          1.5565   -0.6919    0.0000 CA        1 <0>        0.00000
     10 C10         0.8420   -0.2794    0.0000 CA        1 <0>        0.00000
     11 C11         2.2710   -0.2794    0.0000 C         1 <0>        0.00000
     12 N1          2.9854   -0.6919    0.0000 NB        1 <0>        0.00000
     13 N2          2.2710    0.5456    0.0000 N         1 <0>        0.00000
     14 O1         -2.0159   -0.2794    0.0000 OS        1 <0>        0.00000
     15 C12        -2.0159    0.5456    0.0000 CT        1 <0>        0.00000
     16 C13        -0.5869    0.5456    0.0000 CC        1 <0>        0.00000
     17 C14        -1.2544    1.0305    0.0000 CW        1 <0>        0.00000
     18 N3         -0.9994    1.8151    0.0000 N*        1 <0>        0.00000
     19 N4         -0.1744    1.8151    0.0000 NB        1 <0>        0.00000
     20 C15         0.0805    1.0305    0.0000 CR        1 <0>        0.00000
     21 S1         -1.4843    2.4826    0.0000 SO        1 <0>        0.00000
     22 O2         -1.9693    3.1500    0.0000 O2        1 <0>        0.00000
     23 O3         -0.8169    2.9675    0.0000 O2        1 <0>        0.00000
     24 C16        -2.1518    1.9976    0.0000 CT        1 <0>        0.00000
     25 H1         -1.3014   -1.5169    0.0000 HA        1 <0>        0.00000
     26 H2         -0.5869   -1.9294    0.0000 HA        1 <0>        0.00000
     27 H3          0.8420   -1.9294    0.0000 HA        1 <0>        0.00000
     28 H4          1.5565   -1.5169    0.0000 HA        1 <0>        0.00000
     29 H5          0.8420   -0.2794    0.0000 HA        1 <0>        0.00000
     30 H6          2.9854   -0.6919    0.0000 H         1 <0>        0.00000
     31 H7          2.2710    0.5456    0.0000 H         1 <0>        0.00000
     32 H8          2.2710    0.5456    0.0000 H         1 <0>        0.00000
     33 H9         -2.0159    0.5456    0.0000 H1        1 <0>        0.00000
     34 H10        -2.0159    0.5456    0.0000 H1        1 <0>        0.00000
     35 H11        -2.0159    0.5456    0.0000 H1        1 <0>        0.00000
     36 H12        -1.2544    1.0305    0.0000 H4        1 <0>        0.00000
     37 H13         0.0805    1.0305    0.0000 H4        1 <0>        0.00000
     38 H14        -2.1518    1.9976    0.0000 H1        1 <0>        0.00000
     39 H15        -2.1518    1.9976    0.0000 H1        1 <0>        0.00000
     40 H16        -2.1518    1.9976    0.0000 H1        1 <0>        0.00000
@<TRIPOS>BOND
     1    1    2 ar
     2    1    6 ar
     3    2    3 ar
     4    3    4 ar
     5    3    7 ar
     6    4    5 ar
     7    4   10 ar
     8    5    6 ar
     9    5   16 1
    10    6   14 1
    11    7    8 ar
    12    8    9 ar
    13    9   10 ar
    14    9   11 1
    15   11   12 2
    16   11   13 1
    17   14   15 1
    18   16   17 2
    19   16   20 1
    20   17   18 1
    21   18   19 1
    22   18   21 1
    23   19   20 2
    24   21   22 2
    25   21   23 2
    26   21   24 1
    27    1   25 1
    28    2   26 1
    29    7   27 1
    30    8   28 1
    31   10   29 1
    32   12   30 1
    33   13   31 1
    34   13   32 1
    35   15   33 1
    36   15   34 1
    37   15   35 1
    38   17   36 1
    39   20   37 1
    40   24   38 1
    41   24   39 1
    42   24   40 1
@<TRIPOS>SUBSTRUCTURE
     1 <0>         1 GROUP 0 A     ****
@<TRIPOS>MOLECULE
BOS
   32    33     1     0     0
SMALL
NO_CHARGES

@<TRIPOS>ATOM
      1 N1         -0.0372    3.8255    0.0000 N3        1 <0>        0.00000
      2 S1         -0.0372    3.0005    0.0000 SO        1 <0>        0.00000
      3 O1         -0.8622    3.0005    0.0000 O2        1 <0>        0.00000
      4 O2          0.7878    3.0005    0.0000 O2        1 <0>        0.00000
      5 C1         -0.0372    2.1755    0.0000 CA        1 <0>        0.00000
      6 C2          0.6772    1.7630    0.0000 CA        1 <0>        0.00000
      7 C3          0.6772    0.9380    0.0000 CA        1 <0>        0.00000
      8 C4         -0.0372    0.5255    0.0000 CA        1 <0>        0.00000
      9 C5         -0.7517    0.9380    0.0000 CA        1 <0>        0.00000
     10 C6         -0.7517    1.7630    0.0000 CA        1 <0>        0.00000
     11 N2         -0.0372   -0.2995    0.0000 N         1 <0>        0.00000
     12 C7          0.6772   -0.7120    0.0000 C         1 <0>        0.00000
     13 O3          1.3917   -0.2995    0.0000 O         1 <0>        0.00000
     14 C8          0.6772   -1.5370    0.0000 CA        1 <0>        0.00000
     15 C9          1.3917   -1.9495    0.0000 CA        1 <0>        0.00000
     16 C10         1.3917   -2.7745    0.0000 CA        1 <0>        0.00000
     17 C11         0.6772   -3.1870    0.0000 CA        1 <0>        0.00000
     18 C12        -0.0372   -2.7745    0.0000 CA        1 <0>        0.00000
     19 C13        -0.0372   -1.9495    0.0000 CA        1 <0>        0.00000
     20 S2         -0.7517   -1.5370    0.0000 SH        1 <0>        0.00000
     21 H1         -0.0372    3.8255    0.0000 H         1 <0>        0.00000
     22 H2         -0.0372    3.8255    0.0000 H         1 <0>        0.00000
     23 H3          0.6772    1.7630    0.0000 HA        1 <0>        0.00000
     24 H4          0.6772    0.9380    0.0000 HA        1 <0>        0.00000
     25 H5         -0.7517    0.9380    0.0000 HA        1 <0>        0.00000
     26 H6         -0.7517    1.7630    0.0000 HA        1 <0>        0.00000
     27 H7         -0.0372   -0.2995    0.0000 H         1 <0>        0.00000
     28 H8          1.3917   -1.9495    0.0000 HA        1 <0>        0.00000
     29 H9          1.3917   -2.7745    0.0000 HA        1 <0>        0.00000
     30 H10         0.6772   -3.1870    0.0000 HA        1 <0>        0.00000
     31 H11        -0.0372   -2.7745    0.0000 HA        1 <0>        0.00000
     32 H12        -0.7517   -1.5370    0.0000 HS        1 <0>        0.00000
@<TRIPOS>BOND
     1    1    2 1
     2    2    3 2
     3    2    4 2
     4    2    5 1
     5    5    6 ar
     6    5   10 ar
     7    6    7 ar
     8    7    8 ar
     9    8    9 ar
    10    8   11 1
    11    9   10 ar
    12   11   12 am
    13   12   13 2
    14   12   14 1
    15   14   15 ar
    16   14   19 ar
    17   15   16 ar
    18   16   17 ar
    19   17   18 ar
    20   18   19 ar
    21   19   20 1
    22    1   21 1
    23    1   22 1
    24    6   23 1
    25    7   24 1
    26    9   25 1
    27   10   26 1
    28   11   27 1
    29   15   28 1
    30   16   29 1
    31   17   30 1
    32   18   31 1
    33   20   32 1
@<TRIPOS>SUBSTRUCTURE
     1 <0>         1 GROUP 0 A     ****
@<TRIPOS>MOLECULE
IN8
   46    48     1     0     0
SMALL
NO_CHARGES

@<TRIPOS>ATOM
      1 C1         -3.4872   -0.2368    0.0000 CR        1 <0>        0.00000
      2 C2         -4.7929    0.0407    0.0000 CR        1 <0>        0.00000
      3 C3         -2.0583   -0.2368    0.0000 C         1 <0>        0.00000
      4 C4         -1.3438    1.0007    0.0000 CA        1 <0>        0.00000
      5 C5         -1.3438    1.8257    0.0000 CA        1 <0>        0.00000
      6 C6         -0.6293    2.2382    0.0000 CA        1 <0>        0.00000
      7 C7          0.0851    1.8257    0.0000 CA        1 <0>        0.00000
      8 C8          0.0851    1.0007    0.0000 CA        1 <0>        0.00000
      9 C9          0.7996   -0.2368    0.0000 C         1 <0>        0.00000
     10 C10         2.2285   -0.2368    0.0000 CT        1 <0>        0.00000
     11 C11         4.3720   -1.4743    0.0000 CA        1 <0>        0.00000
     12 C12         3.6575   -1.8868    0.0000 CA        1 <0>        0.00000
     13 C13         2.9430   -1.4743    0.0000 CA        1 <0>        0.00000
     14 C14         4.3720   -0.6493    0.0000 CA        1 <0>        0.00000
     15 S1         -4.2409   -0.5724    0.0000 S         1 <0>        0.00000
     16 N1         -3.5735    0.5836    0.0000 NB        1 <0>        0.00000
     17 N2         -4.3804    0.7552    0.0000 NB        1 <0>        0.00000
     18 N3         -2.7728   -0.6493    0.0000 N         1 <0>        0.00000
     19 S2         -5.6134   -0.0455    0.0000 SH        1 <0>        0.00000
     20 O1         -2.0583    0.5882    0.0000 O         1 <0>        0.00000
     21 C15        -1.3438   -0.6493    0.0000 CT        1 <0>        0.00000
     22 C16        -0.6293   -0.2368    0.0000 CT        1 <0>        0.00000
     23 C17        -0.6293    0.5882    0.0000 CA        1 <0>        0.00000
     24 O2          1.5141   -0.6493    0.0000 OS        1 <0>        0.00000
     25 O3          0.7996    0.5882    0.0000 O         1 <0>        0.00000
     26 N4          0.0851   -0.6493    0.0000 N         1 <0>        0.00000
     27 C18         2.9430   -0.6493    0.0000 CA        1 <0>        0.00000
     28 C19         3.6575   -0.2368    0.0000 CA        1 <0>        0.00000
     29 H1         -1.1350    0.0551    0.0000 H1        1 <0>        0.00000
     30 H2         -1.3438    1.0007    0.0000 HA        1 <0>        0.00000
     31 H3         -1.3438    1.8257    0.0000 HA        1 <0>        0.00000
     32 H4         -0.6293    2.2382    0.0000 HA        1 <0>        0.00000
     33 H5          0.0851    1.8257    0.0000 HA        1 <0>        0.00000
     34 H6          0.0851    1.0007    0.0000 HA        1 <0>        0.00000
     35 H7          2.2285   -0.2368    0.0000 H1        1 <0>        0.00000
     36 H8          2.2285   -0.2368    0.0000 H1        1 <0>        0.00000
     37 H9          4.3720   -1.4743    0.0000 HA        1 <0>        0.00000
     38 H10         3.6575   -1.8868    0.0000 HA        1 <0>        0.00000
     39 H11         2.9430   -1.4743    0.0000 HA        1 <0>        0.00000
     40 H12         4.3720   -0.6493    0.0000 HA        1 <0>        0.00000
     41 H13        -2.7728   -0.6493    0.0000 H         1 <0>        0.00000
     42 H14        -5.6134   -0.0455    0.0000 HS        1 <0>        0.00000
     43 H15        -1.3438   -0.6493    0.0000 HC        1 <0>        0.00000
     44 H16        -1.3438   -0.6493    0.0000 HC        1 <0>        0.00000
     45 H17         0.0851   -0.6493    0.0000 H         1 <0>        0.00000
     46 H18         3.6575   -0.2368    0.0000 HA        1 <0>        0.00000
@<TRIPOS>BOND
     1    1   15 1
     2    1   16 2
     3    1   18 1
     4    2   15 1
     5    2   17 2
     6    2   19 1
     7    3   18 am
     8    3   20 2
     9    3   21 1
    10    4    5 ar
    11    4   23 ar
    12    5    6 ar
    13    6    7 ar
    14    7    8 ar
    15    8   23 ar
    16    9   24 1
    17    9   25 2
    18    9   26 am
    19   10   24 1
    20   10   27 1
    21   11   12 ar
    22   11   14 ar
    23   12   13 ar
    24   13   27 ar
    25   14   28 ar
    26   16   17 1
    27   21   22 1
    28   22   23 1
    29   22   26 1
    30   22   29 1
    31   27   28 ar
    32    4   30 1
    33    5   31 1
    34    6   32 1
    35    7   33 1
    36    8   34 1
    37   10   35 1
    38   10   36 1
    39   11   37 1
    40   12   38 1
    41   13   39 1
    42   14   40 1
    43   18   41 1
    44   19   42 1
    45   21   43 1
    46   21   44 1
    47   26   45 1
    48   28   46 1
@<TRIPOS>SUBSTRUCTURE
     1 <0>         1 GROUP 0 A     ****
@<TRIPOS>MOLECULE
JK3
   42    44     1     0     0
SMALL
NO_CHARGES

@<TRIPOS>ATOM
      1 Cl1         1.5560    0.9948    0.0000 CL        1 <0>        0.00000
      2 C1         -1.9799   -1.7060    0.0000 CC        1 <0>        0.00000
      3 C2         -2.6473   -2.1909    0.0000 CC        1 <0>        0.00000
      4 C3         -2.3924   -2.9755    0.0000 CW        1 <0>        0.00000
      5 O1         -1.5674   -2.9755    0.0000 OS        1 <0>        0.00000
      6 C4         -1.3125   -2.1909    0.0000 CW        1 <0>        0.00000
      7 C5         -0.5278   -1.9360    0.0000 C         1 <0>        0.00000
      8 O2          0.0853   -2.4880    0.0000 O         1 <0>        0.00000
      9 N1         -0.3563   -1.1290    0.0000 N         1 <0>        0.00000
     10 C6          0.4283   -0.8741    0.0000 CA        1 <0>        0.00000
     11 C7          1.0414   -1.4261    0.0000 CA        1 <0>        0.00000
     12 C8          1.8260   -1.1711    0.0000 CA        1 <0>        0.00000
     13 C9          1.9975   -0.3642    0.0000 CA        1 <0>        0.00000
     14 C10         1.3845    0.1879    0.0000 CA        1 <0>        0.00000
     15 C11         0.5998   -0.0671    0.0000 CA        1 <0>        0.00000
     16 N2         -0.0133    0.4850    0.0000 N3        1 <0>        0.00000
     17 C12        -0.7979    0.2300    0.0000 CT        1 <0>        0.00000
     18 C13        -1.4110    0.7820    0.0000 CT        1 <0>        0.00000
     19 C14         0.1583    1.2919    0.0000 CT        1 <0>        0.00000
     20 C15        -0.4548    1.8440    0.0000 CT        1 <0>        0.00000
     21 N3         -1.2395    1.5890    0.0000 N3        1 <0>        0.00000
     22 C16        -1.8525    2.1411    0.0000 CT        1 <0>        0.00000
     23 C17        -1.6810    2.9480    0.0000 C2        1 <0>        0.00000
     24 C18        -1.5095    3.7550    0.0000 C2        1 <0>        0.00000
     25 Br1        -2.8773   -3.6430    0.0000 BR        1 <0>        0.00000
     26 H1         -1.9799   -1.7060    0.0000 HA        1 <0>        0.00000
     27 H2         -2.6473   -2.1909    0.0000 HA        1 <0>        0.00000
     28 H3         -0.3563   -1.1290    0.0000 H         1 <0>        0.00000
     29 H4          1.0414   -1.4261    0.0000 HA        1 <0>        0.00000
     30 H5          1.8260   -1.1711    0.0000 HA        1 <0>        0.00000
     31 H6          1.9975   -0.3642    0.0000 HA        1 <0>        0.00000
     32 H7         -0.7979    0.2300    0.0000 H1        1 <0>        0.00000
     33 H8         -0.7979    0.2300    0.0000 H1        1 <0>        0.00000
     34 H9         -1.4110    0.7820    0.0000 H1        1 <0>        0.00000
     35 H10        -1.4110    0.7820    0.0000 H1        1 <0>        0.00000
     36 H11         0.1583    1.2919    0.0000 H1        1 <0>        0.00000
     37 H12         0.1583    1.2919    0.0000 H1        1 <0>        0.00000
     38 H13        -0.4548    1.8440    0.0000 H1        1 <0>        0.00000
     39 H14        -0.4548    1.8440    0.0000 H1        1 <0>        0.00000
     40 H15        -1.8525    2.1411    0.0000 H1        1 <0>        0.00000
     41 H16        -1.8525    2.1411    0.0000 H1        1 <0>        0.00000
     42 H17        -1.5095    3.7550    0.0000 HC        1 <0>        0.00000
@<TRIPOS>BOND
     1    2    6 2
     2    2    3 1
     3    3    4 2
     4    4   25 1
     5    4    5 1
     6    5    6 1
     7    6    7 1
     8    7    9 am
     9    7    8 2
    10    9   10 1
    11   10   15 ar
    12   10   11 ar
    13   11   12 ar
    14   12   13 ar
    15   13   14 ar
    16    1   14 1
    17   14   15 ar
    18   15   16 1
    19   16   17 1
    20   17   18 1
    21   16   19 1
    22   19   20 1
    23   20   21 1
    24   18   21 1
    25   21   22 1
    26   22   23 1
    27   23   24 3
    28    2   26 1
    29    3   27 1
    30    9   28 1
    31   11   29 1
    32   12   30 1
    33   13   31 1
    34   17   32 1
    35   17   33 1
    36   18   34 1
    37   18   35 1
    38   19   36 1
    39   19   37 1
    40   20   38 1
    41   20   39 1
    42   22   40 1
    43   22   41 1
    44   24   42 1
@<TRIPOS>SUBSTRUCTURE
     1 <0>         1 GROUP 0 A     ****
@<TRIPOS>MOLECULE
MiniDrugBank_17
   75    78     1     0     0
SMALL
NO_CHARGES

@<TRIPOS>ATOM
      1 C1         -5.9471    9.0388    0.0000 CT        1 <0>        0.00000
      2 C2         -5.3060    9.5580    0.0000 CT        1 <0>        0.00000
      3 C3         -4.6648   10.0772    0.0000 CT        1 <0>        0.00000
      4 C4         -5.8251   10.1991    0.0000 C         1 <0>        0.00000
      5 O1         -5.5295   10.9693    0.0000 O         1 <0>        0.00000
      6 O2         -6.6400   10.0701    0.0000 OH        1 <0>        0.00000
      7 O3         -4.7868    8.9168    0.0000 OS        1 <0>        0.00000
      8 N1         -5.0824    8.1466    0.0000 NB        1 <0>        0.00000
      9 C5         -4.5632    7.5055    0.0000 C         1 <0>        0.00000
     10 C6         -4.8589    6.7353    0.0000 CR        1 <0>        0.00000
     11 N2         -4.4096    6.0434    0.0000 NB        1 <0>        0.00000
     12 C7         -4.9288    5.4022    0.0000 CR        1 <0>        0.00000
     13 S1         -5.6990    5.6979    0.0000 S         1 <0>        0.00000
     14 N3         -5.6558    6.5217    0.0000 NB        1 <0>        0.00000
     15 N4         -4.7152    4.6053    0.0000 N2        1 <0>        0.00000
     16 C8         -3.7484    7.6345    0.0000 C         1 <0>        0.00000
     17 O4         -3.4527    8.4047    0.0000 O         1 <0>        0.00000
     18 N5         -3.2292    6.9934    0.0000 N         1 <0>        0.00000
     19 C9         -2.4144    7.1224    0.0000 CT        1 <0>        0.00000
     20 C10        -1.7469    6.6375    0.0000 CT        1 <0>        0.00000
     21 N6         -1.2620    7.3050    0.0000 N         1 <0>        0.00000
     22 C11        -1.9294    7.7899    0.0000 C         1 <0>        0.00000
     23 O5         -2.0585    8.6047    0.0000 O         1 <0>        0.00000
     24 C12        -0.4415    7.2187    0.0000 CM        1 <0>        0.00000
     25 C13        -0.1060    6.4651    0.0000 CM        1 <0>        0.00000
     26 C14        -0.5909    5.7976    0.0000 CT        1 <0>        0.00000
     27 S2         -1.4114    5.8838    0.0000 S         1 <0>        0.00000
     28 C15         0.7144    6.3788    0.0000 CT        1 <0>        0.00000
     29 N7          1.0500    5.6251    0.0000 NB        1 <0>        0.00000
     30 C16         1.8570    5.4536    0.0000 CR        1 <0>        0.00000
     31 C17         1.9432    4.6331    0.0000 CC        1 <0>        0.00000
     32 C18         1.1895    4.2976    0.0000 CW        1 <0>        0.00000
     33 N8          0.6375    4.9107    0.0000 N*        1 <0>        0.00000
     34 C19        -0.1829    4.8244    0.0000 CT        1 <0>        0.00000
     35 N9          1.0180    3.4906    0.0000 N2        1 <0>        0.00000
     36 N10         2.6577    4.2206    0.0000 N         1 <0>        0.00000
     37 C20         3.3721    4.6331    0.0000 C         1 <0>        0.00000
     38 O6          3.3721    5.4581    0.0000 O         1 <0>        0.00000
     39 N11         4.0866    4.2206    0.0000 N         1 <0>        0.00000
     40 C21         4.8011    4.6331    0.0000 CT        1 <0>        0.00000
     41 C22         5.5155    4.2206    0.0000 CT        1 <0>        0.00000
     42 N12         6.2300    4.6331    0.0000 N3        1 <0>        0.00000
     43 C23         0.0433    7.8862    0.0000 C         1 <0>        0.00000
     44 O7          0.8638    7.7999    0.0000 O2        1 <0>        0.00000
     45 O8         -0.2922    8.6398    0.0000 O2        1 <0>        0.00000
     46 H1         -5.9471    9.0388    0.0000 HC        1 <0>        0.00000
     47 H2         -5.9471    9.0388    0.0000 HC        1 <0>        0.00000
     48 H3         -5.9471    9.0388    0.0000 HC        1 <0>        0.00000
     49 H4         -4.6648   10.0772    0.0000 HC        1 <0>        0.00000
     50 H5         -4.6648   10.0772    0.0000 HC        1 <0>        0.00000
     51 H6         -4.6648   10.0772    0.0000 HC        1 <0>        0.00000
     52 H7         -6.6400   10.0701    0.0000 HO        1 <0>        0.00000
     53 H8         -4.7152    4.6053    0.0000 H         1 <0>        0.00000
     54 H9         -4.7152    4.6053    0.0000 H         1 <0>        0.00000
     55 H10        -3.2292    6.9934    0.0000 H         1 <0>        0.00000
     56 H11        -2.4144    7.1224    0.0000 H1        1 <0>        0.00000
     57 H12        -1.7469    6.6375    0.0000 H2        1 <0>        0.00000
     58 H13        -0.5909    5.7976    0.0000 H1        1 <0>        0.00000
     59 H14        -0.5909    5.7976    0.0000 H1        1 <0>        0.00000
     60 H15         0.7144    6.3788    0.0000 HP        1 <0>        0.00000
     61 H16         0.7144    6.3788    0.0000 HP        1 <0>        0.00000
     62 H17         1.8570    5.4536    0.0000 H4        1 <0>        0.00000
     63 H18        -0.1829    4.8244    0.0000 H1        1 <0>        0.00000
     64 H19        -0.1829    4.8244    0.0000 H1        1 <0>        0.00000
     65 H20        -0.1829    4.8244    0.0000 H1        1 <0>        0.00000
     66 H21         1.0180    3.4906    0.0000 H         1 <0>        0.00000
     67 H22         1.0180    3.4906    0.0000 H         1 <0>        0.00000
     68 H23         2.6577    4.2206    0.0000 H         1 <0>        0.00000
     69 H24         4.0866    4.2206    0.0000 H         1 <0>        0.00000
     70 H25         4.8011    4.6331    0.0000 H1        1 <0>        0.00000
     71 H26         4.8011    4.6331    0.0000 H1        1 <0>        0.00000
     72 H27         5.5155    4.2206    0.0000 H1        1 <0>        0.00000
     73 H28         5.5155    4.2206    0.0000 H1        1 <0>        0.00000
     74 H29         6.2300    4.6331    0.0000 H         1 <0>        0.00000
     75 H30         6.2300    4.6331    0.0000 H         1 <0>        0.00000
@<TRIPOS>BOND
     1    1    2 1
     2    2    3 1
     3    2    4 1
     4    4    5 2
     5    4    6 1
     6    2    7 1
     7    7    8 1
     8    8    9 2
     9    9   10 1
    10   10   11 1
    11   11   12 2
    12   12   13 1
    13   13   14 1
    14   10   14 2
    15   12   15 1
    16    9   16 1
    17   16   17 2
    18   16   18 am
    19   18   19 1
    20   19   20 1
    21   20   21 1
    22   21   22 am
    23   19   22 1
    24   22   23 2
    25   21   24 1
    26   24   25 2
    27   25   26 1
    28   26   27 1
    29   20   27 1
    30   25   28 1
    31   28   29 1
    32   29   30 2
    33   30   31 1
    34   31   32 2
    35   32   33 1
    36   29   33 1
    37   33   34 1
    38   32   35 1
    39   31   36 1
    40   36   37 am
    41   37   38 2
    42   37   39 am
    43   39   40 1
    44   40   41 1
    45   41   42 1
    46   24   43 1
    47   43   44 2
    48   43   45 1
    49    1   46 1
    50    1   47 1
    51    1   48 1
    52    3   49 1
    53    3   50 1
    54    3   51 1
    55    6   52 1
    56   15   53 1
    57   15   54 1
    58   18   55 1
    59   19   56 1
    60   20   57 1
    61   26   58 1
    62   26   59 1
    63   28   60 1
    64   28   61 1
    65   30   62 1
    66   34   63 1
    67   34   64 1
    68   34   65 1
    69   35   66 1
    70   35   67 1
    71   36   68 1
    72   39   69 1
    73   40   70 1
    74   40   71 1
    75   41   72 1
    76   41   73 1
    77   42   74 1
    78   42   75 1
@<TRIPOS>SUBSTRUCTURE
     1 <0>         1 GROUP 0 A     ****
@<TRIPOS>MOLECULE
MiniDrugBank_18
   19    18     1     0     0
SMALL
NO_CHARGES

@<TRIPOS>ATOM
      1 C1          0.0000   -1.4289    0.0000 CT        1 <0>        0.00000
      2 C2          0.8250   -1.4289    0.0000 CT        1 <0>        0.00000
      3 N1          1.2375   -0.7145    0.0000 N         1 <0>        0.00000
      4 C3          2.0625   -0.7145    0.0000 CT        1 <0>        0.00000
      5 C4          2.4750    0.0000    0.0000 CT        1 <0>        0.00000
      6 C5          0.8250    0.0000    0.0000 CM        1 <0>        0.00000
      7 S1          1.2375    0.7145    0.0000 SH        1 <0>        0.00000
      8 S2          0.0000    0.0000    0.0000 SD        1 <0>        0.00000
      9 H1          0.0000   -1.4289    0.0000 HC        1 <0>        0.00000
     10 H2          0.0000   -1.4289    0.0000 HC        1 <0>        0.00000
     11 H3          0.0000   -1.4289    0.0000 HC        1 <0>        0.00000
     12 H4          0.8250   -1.4289    0.0000 H1        1 <0>        0.00000
     13 H5          0.8250   -1.4289    0.0000 H1        1 <0>        0.00000
     14 H6          2.0625   -0.7145    0.0000 H1        1 <0>        0.00000
     15 H7          2.0625   -0.7145    0.0000 H1        1 <0>        0.00000
     16 H8          2.4750    0.0000    0.0000 HC        1 <0>        0.00000
     17 H9          2.4750    0.0000    0.0000 HC        1 <0>        0.00000
     18 H10         2.4750    0.0000    0.0000 HC        1 <0>        0.00000
     19 H11         1.2375    0.7145    0.0000 HS        1 <0>        0.00000
@<TRIPOS>BOND
     1    1    2 1
     2    2    3 1
     3    3    4 1
     4    4    5 1
     5    3    6 1
     6    6    7 1
     7    6    8 2
     8    1    9 1
     9    1   10 1
    10    1   11 1
    11    2   12 1
    12    2   13 1
    13    4   14 1
    14    4   15 1
    15    5   16 1
    16    5   17 1
    17    5   18 1
    18    7   19 1
@<TRIPOS>SUBSTRUCTURE
     1 <0>         1 GROUP 0 A     ****
@<TRIPOS>MOLECULE
MiniDrugBank_19
   61    60     1     0     0
SMALL
NO_CHARGES

@<TRIPOS>ATOM
      1 C1         -2.4896    6.4611    0.0000 CT        1 <0>        0.00000
      2 C2         -2.2608    5.6684    0.0000 CT        1 <0>        0.00000
      3 C3         -2.8328    5.0740    0.0000 CT        1 <0>        0.00000
      4 C4         -2.6040    4.2813    0.0000 CT        1 <0>        0.00000
      5 C5         -3.1761    3.6868    0.0000 CT        1 <0>        0.00000
      6 C6         -2.9473    2.8942    0.0000 CM        1 <0>        0.00000
      7 C7         -3.5193    2.2997    0.0000 CM        1 <0>        0.00000
      8 C8         -3.2905    1.5071    0.0000 CT        1 <0>        0.00000
      9 C9         -2.4896    1.3089    0.0000 CM        1 <0>        0.00000
     10 C10        -2.2608    0.5163    0.0000 CM        1 <0>        0.00000
     11 C11        -1.4600    0.3182    0.0000 CT        1 <0>        0.00000
     12 C12        -0.8879    0.9126    0.0000 CM        1 <0>        0.00000
     13 C13        -0.0871    0.7145    0.0000 CM        1 <0>        0.00000
     14 C14         0.4850    1.3089    0.0000 CT        1 <0>        0.00000
     15 C15         1.2858    1.1108    0.0000 CM        1 <0>        0.00000
     16 C16         1.5146    0.3182    0.0000 CM        1 <0>        0.00000
     17 C17         2.3155    0.1200    0.0000 CT        1 <0>        0.00000
     18 C18         2.8875    0.7145    0.0000 CT        1 <0>        0.00000
     19 C19         3.6883    0.5163    0.0000 CT        1 <0>        0.00000
     20 C20         4.2604    1.1108    0.0000 CT        1 <0>        0.00000
     21 P1          5.0612    0.9126    0.0000 P         1 <0>        0.00000
     22 F1          4.8631    0.1118    0.0000 F         1 <0>        0.00000
     23 O1          5.2594    1.7135    0.0000 O         1 <0>        0.00000
     24 O2          5.8621    0.7145    0.0000 OS        1 <0>        0.00000
     25 C21         6.4341    1.3089    0.0000 CT        1 <0>        0.00000
     26 H1         -2.4896    6.4611    0.0000 HC        1 <0>        0.00000
     27 H2         -2.4896    6.4611    0.0000 HC        1 <0>        0.00000
     28 H3         -2.4896    6.4611    0.0000 HC        1 <0>        0.00000
     29 H4         -2.2608    5.6684    0.0000 HC        1 <0>        0.00000
     30 H5         -2.2608    5.6684    0.0000 HC        1 <0>        0.00000
     31 H6         -2.8328    5.0740    0.0000 HC        1 <0>        0.00000
     32 H7         -2.8328    5.0740    0.0000 HC        1 <0>        0.00000
     33 H8         -2.6040    4.2813    0.0000 HC        1 <0>        0.00000
     34 H9         -2.6040    4.2813    0.0000 HC        1 <0>        0.00000
     35 H10        -3.1761    3.6868    0.0000 HC        1 <0>        0.00000
     36 H11        -3.1761    3.6868    0.0000 HC        1 <0>        0.00000
     37 H12        -2.9473    2.8942    0.0000 HA        1 <0>        0.00000
     38 H13        -3.5193    2.2997    0.0000 HA        1 <0>        0.00000
     39 H14        -3.2905    1.5071    0.0000 HC        1 <0>        0.00000
     40 H15        -3.2905    1.5071    0.0000 HC        1 <0>        0.00000
     41 H16        -2.4896    1.3089    0.0000 HA        1 <0>        0.00000
     42 H17        -2.2608    0.5163    0.0000 HA        1 <0>        0.00000
     43 H18        -1.4600    0.3182    0.0000 HC        1 <0>        0.00000
     44 H19        -1.4600    0.3182    0.0000 HC        1 <0>        0.00000
     45 H20        -0.8879    0.9126    0.0000 HA        1 <0>        0.00000
     46 H21        -0.0871    0.7145    0.0000 HA        1 <0>        0.00000
     47 H22         0.4850    1.3089    0.0000 HC        1 <0>        0.00000
     48 H23         0.4850    1.3089    0.0000 HC        1 <0>        0.00000
     49 H24         1.2858    1.1108    0.0000 HA        1 <0>        0.00000
     50 H25         1.5146    0.3182    0.0000 HA        1 <0>        0.00000
     51 H26         2.3155    0.1200    0.0000 HC        1 <0>        0.00000
     52 H27         2.3155    0.1200    0.0000 HC        1 <0>        0.00000
     53 H28         2.8875    0.7145    0.0000 HC        1 <0>        0.00000
     54 H29         2.8875    0.7145    0.0000 HC        1 <0>        0.00000
     55 H30         3.6883    0.5163    0.0000 HC        1 <0>        0.00000
     56 H31         3.6883    0.5163    0.0000 HC        1 <0>        0.00000
     57 H32         4.2604    1.1108    0.0000 HC        1 <0>        0.00000
     58 H33         4.2604    1.1108    0.0000 HC        1 <0>        0.00000
     59 H34         6.4341    1.3089    0.0000 H1        1 <0>        0.00000
     60 H35         6.4341    1.3089    0.0000 H1        1 <0>        0.00000
     61 H36         6.4341    1.3089    0.0000 H1        1 <0>        0.00000
@<TRIPOS>BOND
     1    1    2 1
     2    2    3 1
     3    3    4 1
     4    4    5 1
     5    5    6 1
     6    6    7 2
     7    7    8 1
     8    8    9 1
     9    9   10 2
    10   10   11 1
    11   11   12 1
    12   12   13 2
    13   13   14 1
    14   14   15 1
    15   15   16 2
    16   16   17 1
    17   17   18 1
    18   18   19 1
    19   19   20 1
    20   20   21 1
    21   21   22 1
    22   21   23 2
    23   21   24 1
    24   24   25 1
    25    1   26 1
    26    1   27 1
    27    1   28 1
    28    2   29 1
    29    2   30 1
    30    3   31 1
    31    3   32 1
    32    4   33 1
    33    4   34 1
    34    5   35 1
    35    5   36 1
    36    6   37 1
    37    7   38 1
    38    8   39 1
    39    8   40 1
    40    9   41 1
    41   10   42 1
    42   11   43 1
    43   11   44 1
    44   12   45 1
    45   13   46 1
    46   14   47 1
    47   14   48 1
    48   15   49 1
    49   16   50 1
    50   17   51 1
    51   17   52 1
    52   18   53 1
    53   18   54 1
    54   19   55 1
    55   19   56 1
    56   20   57 1
    57   20   58 1
    58   25   59 1
    59   25   60 1
    60   25   61 1
@<TRIPOS>SUBSTRUCTURE
     1 <0>         1 GROUP 0 A     ****
@<TRIPOS>MOLECULE
MiniDrugBank_20
   83    87     1     0     0
SMALL
NO_CHARGES

@<TRIPOS>ATOM
      1 P1         -3.1853    0.8125    0.0000 P         1 <0>        0.00000
      2 O1         -3.1853   -0.0161    0.0000 OS        1 <0>        0.00000
      3 O2         -3.8955    1.2213    0.0000 OS        1 <0>        0.00000
      4 O3         -3.1853    1.6411    0.0000 O         1 <0>        0.00000
      5 O4          0.3766    1.2213    0.0000 OS        1 <0>        0.00000
      6 O5         -0.3336   -0.0161    0.0000 O         1 <0>        0.00000
      7 O6         -0.3336   -2.5019    0.0000 O2        1 <0>        0.00000
      8 O7          0.4950   -1.1783    0.0000 O2        1 <0>        0.00000
      9 N1         -1.7432    2.4697    0.0000 N         1 <0>        0.00000
     10 N2         -0.3336   -1.6733    0.0000 N2        1 <0>        0.00000
     11 N3          2.5290    0.8554    0.0000 N3        1 <0>        0.00000
     12 C1         -2.4859    1.2213    0.0000 CM        1 <0>        0.00000
     13 C2         -1.7432    0.8125    0.0000 CT        1 <0>        0.00000
     14 C3         -1.0330    1.2213    0.0000 CM        1 <0>        0.00000
     15 C4         -2.4859    2.0501    0.0000 CM        1 <0>        0.00000
     16 C5         -1.7432   -0.0161    0.0000 CA        1 <0>        0.00000
     17 C6         -1.0330    2.0501    0.0000 CM        1 <0>        0.00000
     18 C7         -0.3336    0.8125    0.0000 C         1 <0>        0.00000
     19 C8         -4.6381   -0.0161    0.0000 CT        1 <0>        0.00000
     20 C9         -1.0330   -0.4358    0.0000 CA        1 <0>        0.00000
     21 C10        -3.9279   -0.4358    0.0000 CT        1 <0>        0.00000
     22 C11        -4.6381    0.8125    0.0000 CT        1 <0>        0.00000
     23 C12        -2.4859   -0.4358    0.0000 CA        1 <0>        0.00000
     24 C13        -3.1853    2.4697    0.0000 CT        1 <0>        0.00000
     25 C14        -1.0330   -1.2644    0.0000 CA        1 <0>        0.00000
     26 C15        -0.3336    2.5019    0.0000 CT        1 <0>        0.00000
     27 C16        -2.4859   -1.2644    0.0000 CA        1 <0>        0.00000
     28 C17        -1.7432   -1.6733    0.0000 CA        1 <0>        0.00000
     29 C18        -5.3806   -0.4358    0.0000 CT        1 <0>        0.00000
     30 C19        -5.3376    0.3927    0.0000 CT        1 <0>        0.00000
     31 C20         1.1192    0.8125    0.0000 CT        1 <0>        0.00000
     32 C21         1.8186    1.2644    0.0000 CT        1 <0>        0.00000
     33 C22         2.5290    0.0268    0.0000 CA        1 <0>        0.00000
     34 C23         3.2715    1.2213    0.0000 CT        1 <0>        0.00000
     35 C24         3.9710    0.8554    0.0000 CA        1 <0>        0.00000
     36 C25         3.2284   -0.3928    0.0000 CA        1 <0>        0.00000
     37 C26         1.8186   -0.3928    0.0000 CA        1 <0>        0.00000
     38 C27         4.6813    1.2213    0.0000 CA        1 <0>        0.00000
     39 C28         3.9710    0.0268    0.0000 CA        1 <0>        0.00000
     40 C29         3.2284   -1.2214    0.0000 CA        1 <0>        0.00000
     41 C30         1.8186   -1.2214    0.0000 CA        1 <0>        0.00000
     42 C31         2.5290   -1.6303    0.0000 CA        1 <0>        0.00000
     43 C32         5.3806    0.8125    0.0000 CA        1 <0>        0.00000
     44 C33         4.6813   -0.3928    0.0000 CA        1 <0>        0.00000
     45 C34         5.3806    0.0268    0.0000 CA        1 <0>        0.00000
     46 H1         -1.7432    2.4697    0.0000 H         1 <0>        0.00000
     47 H2         -1.7432    0.8125    0.0000 HC        1 <0>        0.00000
     48 H3         -1.0330   -0.4358    0.0000 HA        1 <0>        0.00000
     49 H4         -3.9279   -0.4358    0.0000 H1        1 <0>        0.00000
     50 H5         -3.9279   -0.4358    0.0000 H1        1 <0>        0.00000
     51 H6         -4.6381    0.8125    0.0000 H1        1 <0>        0.00000
     52 H7         -4.6381    0.8125    0.0000 H1        1 <0>        0.00000
     53 H8         -2.4859   -0.4358    0.0000 HA        1 <0>        0.00000
     54 H9         -3.1853    2.4697    0.0000 HC        1 <0>        0.00000
     55 H10        -3.1853    2.4697    0.0000 HC        1 <0>        0.00000
     56 H11        -3.1853    2.4697    0.0000 HC        1 <0>        0.00000
     57 H12        -0.3336    2.5019    0.0000 HC        1 <0>        0.00000
     58 H13        -0.3336    2.5019    0.0000 HC        1 <0>        0.00000
     59 H14        -0.3336    2.5019    0.0000 HC        1 <0>        0.00000
     60 H15        -2.4859   -1.2644    0.0000 HA        1 <0>        0.00000
     61 H16        -1.7432   -1.6733    0.0000 HA        1 <0>        0.00000
     62 H17        -5.3806   -0.4358    0.0000 HC        1 <0>        0.00000
     63 H18        -5.3806   -0.4358    0.0000 HC        1 <0>        0.00000
     64 H19        -5.3806   -0.4358    0.0000 HC        1 <0>        0.00000
     65 H20        -5.3376    0.3927    0.0000 HC        1 <0>        0.00000
     66 H21        -5.3376    0.3927    0.0000 HC        1 <0>        0.00000
     67 H22        -5.3376    0.3927    0.0000 HC        1 <0>        0.00000
     68 H23         1.1192    0.8125    0.0000 H1        1 <0>        0.00000
     69 H24         1.1192    0.8125    0.0000 H1        1 <0>        0.00000
     70 H25         1.8186    1.2644    0.0000 H1        1 <0>        0.00000
     71 H26         1.8186    1.2644    0.0000 H1        1 <0>        0.00000
     72 H27         3.2715    1.2213    0.0000 H1        1 <0>        0.00000
     73 H28         3.2715    1.2213    0.0000 H1        1 <0>        0.00000
     74 H29         3.2284   -0.3928    0.0000 HA        1 <0>        0.00000
     75 H30         1.8186   -0.3928    0.0000 HA        1 <0>        0.00000
     76 H31         4.6813    1.2213    0.0000 HA        1 <0>        0.00000
     77 H32         3.9710    0.0268    0.0000 HA        1 <0>        0.00000
     78 H33         3.2284   -1.2214    0.0000 HA        1 <0>        0.00000
     79 H34         1.8186   -1.2214    0.0000 HA        1 <0>        0.00000
     80 H35         2.5290   -1.6303    0.0000 HA        1 <0>        0.00000
     81 H36         5.3806    0.8125    0.0000 HA        1 <0>        0.00000
     82 H37         4.6813   -0.3928    0.0000 HA        1 <0>        0.00000
     83 H38         5.3806    0.0268    0.0000 HA        1 <0>        0.00000
@<TRIPOS>BOND
     1    1    2 1
     2    1    3 1
     3    1    4 2
     4    1   12 1
     5    2   21 1
     6    3   22 1
     7    5   18 1
     8    5   31 1
     9    6   18 2
    10    7   10 1
    11    8   10 2
    12    9   15 1
    13    9   17 1
    14   10   25 1
    15   11   32 1
    16   11   33 1
    17   11   34 1
    18   12   13 1
    19   12   15 2
    20   13   14 1
    21   13   16 1
    22   14   17 2
    23   14   18 1
    24   15   24 1
    25   16   20 ar
    26   16   23 ar
    27   17   26 1
    28   19   21 1
    29   19   22 1
    30   19   29 1
    31   19   30 1
    32   20   25 ar
    33   23   27 ar
    34   25   28 ar
    35   27   28 ar
    36   31   32 1
    37   33   36 ar
    38   33   37 ar
    39   34   35 1
    40   35   38 ar
    41   35   39 ar
    42   36   40 ar
    43   37   41 ar
    44   38   43 ar
    45   39   44 ar
    46   40   42 ar
    47   41   42 ar
    48   43   45 ar
    49   44   45 ar
    50    9   46 1
    51   13   47 1
    52   20   48 1
    53   21   49 1
    54   21   50 1
    55   22   51 1
    56   22   52 1
    57   23   53 1
    58   24   54 1
    59   24   55 1
    60   24   56 1
    61   26   57 1
    62   26   58 1
    63   26   59 1
    64   27   60 1
    65   28   61 1
    66   29   62 1
    67   29   63 1
    68   29   64 1
    69   30   65 1
    70   30   66 1
    71   30   67 1
    72   31   68 1
    73   31   69 1
    74   32   70 1
    75   32   71 1
    76   34   72 1
    77   34   73 1
    78   36   74 1
    79   37   75 1
    80   38   76 1
    81   39   77 1
    82   40   78 1
    83   41   79 1
    84   42   80 1
    85   43   81 1
    86   44   82 1
    87   45   83 1
@<TRIPOS>SUBSTRUCTURE
     1 <0>         1 GROUP 0 A     ****
@<TRIPOS>MOLECULE
1367
   26    27     1     0     0
SMALL
NO_CHARGES

@<TRIPOS>ATOM
      1 N1          4.1159    0.0242    0.0000 N3        1 <0>        0.00000
      2 C1          3.8597   -0.7600    0.0000 CT        1 <0>        0.00000
      3 C2          4.3412   -1.4239    0.0000 CT        1 <0>        0.00000
      4 C3          3.8597   -2.0878    0.0000 CT        1 <0>        0.00000
      5 C4          3.0791   -1.0114    0.0000 CA        1 <0>        0.00000
      6 C5          3.0791   -1.8364    0.0000 CA        1 <0>        0.00000
      7 C6          2.3645   -0.5989    0.0000 CA        1 <0>        0.00000
      8 C7          2.3645   -2.2489    0.0000 CA        1 <0>        0.00000
      9 C8          4.9232    0.1944    0.0000 CT        1 <0>        0.00000
     10 C9          1.6500   -1.0114    0.0000 CA        1 <0>        0.00000
     11 C10         1.6500   -1.8364    0.0000 CA        1 <0>        0.00000
     12 C11         5.1795    0.9786    0.0000 C2        1 <0>        0.00000
     13 C12         5.4359    1.7627    0.0000 C2        1 <0>        0.00000
     14 H1          4.1159    0.0242    0.0000 H         1 <0>        0.00000
     15 H2          3.8597   -0.7600    0.0000 H1        1 <0>        0.00000
     16 H3          4.3412   -1.4239    0.0000 HC        1 <0>        0.00000
     17 H4          4.3412   -1.4239    0.0000 HC        1 <0>        0.00000
     18 H5          3.8597   -2.0878    0.0000 HC        1 <0>        0.00000
     19 H6          3.8597   -2.0878    0.0000 HC        1 <0>        0.00000
     20 H7          2.3645   -0.5989    0.0000 HA        1 <0>        0.00000
     21 H8          2.3645   -2.2489    0.0000 HA        1 <0>        0.00000
     22 H9          4.9232    0.1944    0.0000 H1        1 <0>        0.00000
     23 H10         4.9232    0.1944    0.0000 H1        1 <0>        0.00000
     24 H11         1.6500   -1.0114    0.0000 HA        1 <0>        0.00000
     25 H12         1.6500   -1.8364    0.0000 HA        1 <0>        0.00000
     26 H13         5.4359    1.7627    0.0000 HC        1 <0>        0.00000
@<TRIPOS>BOND
     1    1    2 1
     2    1    9 1
     3    2    3 1
     4    2    5 1
     5    3    4 1
     6    4    6 1
     7    5    6 ar
     8    5    7 ar
     9    6    8 ar
    10    7   10 ar
    11    8   11 ar
    12    9   12 1
    13   10   11 ar
    14   12   13 3
    15    1   14 1
    16    2   15 1
    17    3   16 1
    18    3   17 1
    19    4   18 1
    20    4   19 1
    21    7   20 1
    22    8   21 1
    23    9   22 1
    24    9   23 1
    25   10   24 1
    26   11   25 1
    27   13   26 1
@<TRIPOS>SUBSTRUCTURE
     1 <0>         1 GROUP 0 A     ****
@<TRIPOS>MOLECULE
697
   24    26     1     0     0
SMALL
NO_CHARGES

@<TRIPOS>ATOM
      1 Cl1         2.2413   -0.3751    0.0000 CL        1 <0>        0.00000
      2 S1          5.6469   -1.2002    0.0000 S         1 <0>        0.00000
      3 N1          2.8695    1.6829    0.0000 N         1 <0>        0.00000
      4 N2          3.6703    0.4499    0.0000 N2        1 <0>        0.00000
      5 N3          2.2021    0.5269    0.0000 NB        1 <0>        0.00000
      6 N4          5.1654   -0.5363    0.0000 NB        1 <0>        0.00000
      7 N5          5.1654   -1.8640    0.0000 NB        1 <0>        0.00000
      8 C1          2.0625    1.8544    0.0000 CT        1 <0>        0.00000
      9 C2          1.6500    1.1399    0.0000 CT        1 <0>        0.00000
     10 C3          2.9558    0.8624    0.0000 CR        1 <0>        0.00000
     11 C4          3.6703   -0.3751    0.0000 CA        1 <0>        0.00000
     12 C5          4.3847   -0.7876    0.0000 CB        1 <0>        0.00000
     13 C6          4.3847   -1.6127    0.0000 CB        1 <0>        0.00000
     14 C7          2.9558   -0.7876    0.0000 CA        1 <0>        0.00000
     15 C8          3.6703   -2.0252    0.0000 CA        1 <0>        0.00000
     16 C9          2.9558   -1.6127    0.0000 CA        1 <0>        0.00000
     17 H1          2.8695    1.6829    0.0000 H         1 <0>        0.00000
     18 H2          3.6703    0.4499    0.0000 H         1 <0>        0.00000
     19 H3          2.0625    1.8544    0.0000 H1        1 <0>        0.00000
     20 H4          2.0625    1.8544    0.0000 H1        1 <0>        0.00000
     21 H5          1.6500    1.1399    0.0000 H1        1 <0>        0.00000
     22 H6          1.6500    1.1399    0.0000 H1        1 <0>        0.00000
     23 H7          3.6703   -2.0252    0.0000 HA        1 <0>        0.00000
     24 H8          2.9558   -1.6127    0.0000 HA        1 <0>        0.00000
@<TRIPOS>BOND
     1    1   14 1
     2    2    6 1
     3    2    7 1
     4    3    8 1
     5    3   10 1
     6    4   10 1
     7    4   11 1
     8    5    9 1
     9    5   10 2
    10    6   12 2
    11    7   13 2
    12    8    9 1
    13   11   12 ar
    14   11   14 ar
    15   12   13 ar
    16   13   15 ar
    17   14   16 ar
    18   15   16 ar
    19    3   17 1
    20    4   18 1
    21    8   19 1
    22    8   20 1
    23    9   21 1
    24    9   22 1
    25   15   23 1
    26   16   24 1
@<TRIPOS>SUBSTRUCTURE
     1 <0>         1 GROUP 0 A     ****
@<TRIPOS>MOLECULE
MiniDrugBank_23
   48    50     1     0     0
SMALL
NO_CHARGES

@<TRIPOS>ATOM
      1 O1         -2.8579   -0.8250    0.0000 OH        1 <0>        0.00000
      2 C1         -2.1434   -1.2375    0.0000 C         1 <0>        0.00000
      3 O2         -1.4289   -0.8250    0.0000 O         1 <0>        0.00000
      4 C2         -2.1434   -2.0625    0.0000 C         1 <0>        0.00000
      5 N1         -1.4289   -2.4750    0.0000 NB        1 <0>        0.00000
      6 C3         -0.7145   -2.0625    0.0000 C         1 <0>        0.00000
      7 O3         -0.7145   -1.2375    0.0000 O         1 <0>        0.00000
      8 C4          0.0000   -2.4750    0.0000 CT        1 <0>        0.00000
      9 C5          0.0000   -3.3000    0.0000 CT        1 <0>        0.00000
     10 S1         -0.7145   -3.7125    0.0000 SH        1 <0>        0.00000
     11 C6          0.7145   -2.0625    0.0000 CT        1 <0>        0.00000
     12 C7          1.4289   -2.4750    0.0000 CT        1 <0>        0.00000
     13 C8          2.1434   -2.0625    0.0000 CA        1 <0>        0.00000
     14 C9          2.1434   -1.2375    0.0000 CA        1 <0>        0.00000
     15 C10         2.8579   -0.8250    0.0000 CA        1 <0>        0.00000
     16 C11         3.5724   -1.2375    0.0000 CA        1 <0>        0.00000
     17 C12         3.5724   -2.0625    0.0000 CA        1 <0>        0.00000
     18 C13         2.8579   -2.4750    0.0000 CA        1 <0>        0.00000
     19 C14        -2.8579   -2.4750    0.0000 CW        1 <0>        0.00000
     20 C15        -2.9441   -3.2955    0.0000 CC        1 <0>        0.00000
     21 C16        -3.7511   -3.4670    0.0000 CC        1 <0>        0.00000
     22 C17        -4.1636   -2.7525    0.0000 CW        1 <0>        0.00000
     23 C18        -4.9841   -2.6663    0.0000 CT        1 <0>        0.00000
     24 N2         -5.3196   -1.9126    0.0000 N*        1 <0>        0.00000
     25 C19        -6.1266   -1.7411    0.0000 CR        1 <0>        0.00000
     26 N3         -6.2128   -0.9206    0.0000 NB        1 <0>        0.00000
     27 N4         -5.4592   -0.5851    0.0000 NB        1 <0>        0.00000
     28 N5         -4.9071   -1.1982    0.0000 NB        1 <0>        0.00000
     29 S2         -3.6116   -2.1394    0.0000 S         1 <0>        0.00000
     30 H1         -2.8579   -0.8250    0.0000 HO        1 <0>        0.00000
     31 H2          0.0000   -2.4750    0.0000 HC        1 <0>        0.00000
     32 H3          0.0000   -3.3000    0.0000 H1        1 <0>        0.00000
     33 H4          0.0000   -3.3000    0.0000 H1        1 <0>        0.00000
     34 H5         -0.7145   -3.7125    0.0000 HS        1 <0>        0.00000
     35 H6          0.7145   -2.0625    0.0000 HC        1 <0>        0.00000
     36 H7          0.7145   -2.0625    0.0000 HC        1 <0>        0.00000
     37 H8          1.4289   -2.4750    0.0000 HC        1 <0>        0.00000
     38 H9          1.4289   -2.4750    0.0000 HC        1 <0>        0.00000
     39 H10         2.1434   -1.2375    0.0000 HA        1 <0>        0.00000
     40 H11         2.8579   -0.8250    0.0000 HA        1 <0>        0.00000
     41 H12         3.5724   -1.2375    0.0000 HA        1 <0>        0.00000
     42 H13         3.5724   -2.0625    0.0000 HA        1 <0>        0.00000
     43 H14         2.8579   -2.4750    0.0000 HA        1 <0>        0.00000
     44 H15        -2.9441   -3.2955    0.0000 HA        1 <0>        0.00000
     45 H16        -3.7511   -3.4670    0.0000 HA        1 <0>        0.00000
     46 H17        -4.9841   -2.6663    0.0000 H1        1 <0>        0.00000
     47 H18        -4.9841   -2.6663    0.0000 H1        1 <0>        0.00000
     48 H19        -6.1266   -1.7411    0.0000 H5        1 <0>        0.00000
@<TRIPOS>BOND
     1    1    2 1
     2    2    3 2
     3    2    4 1
     4    4    5 2
     5    5    6 1
     6    6    7 2
     7    6    8 1
     8    8    9 1
     9    9   10 1
    10    8   11 1
    11   11   12 1
    12   12   13 1
    13   13   14 ar
    14   14   15 ar
    15   15   16 ar
    16   16   17 ar
    17   17   18 ar
    18   13   18 ar
    19    4   19 1
    20   19   20 2
    21   20   21 1
    22   21   22 2
    23   22   23 1
    24   23   24 1
    25   24   25 1
    26   25   26 2
    27   26   27 1
    28   27   28 2
    29   24   28 1
    30   22   29 1
    31   19   29 1
    32    1   30 1
    33    8   31 1
    34    9   32 1
    35    9   33 1
    36   10   34 1
    37   11   35 1
    38   11   36 1
    39   12   37 1
    40   12   38 1
    41   14   39 1
    42   15   40 1
    43   16   41 1
    44   17   42 1
    45   18   43 1
    46   20   44 1
    47   21   45 1
    48   23   46 1
    49   23   47 1
    50   25   48 1
@<TRIPOS>SUBSTRUCTURE
     1 <0>         1 GROUP 0 A     ****
@<TRIPOS>MOLECULE
U1K
   32    32     1     0     0
SMALL
NO_CHARGES

@<TRIPOS>ATOM
      1 O1          1.4699    2.6628    0.0000 OH        1 <0>        0.00000
      2 C1          1.2984    1.8558    0.0000 C         1 <0>        0.00000
      3 O2          1.9115    1.3037    0.0000 O         1 <0>        0.00000
      4 C2          0.5138    1.6008    0.0000 CT        1 <0>        0.00000
      5 C3          0.3423    0.7939    0.0000 CT        1 <0>        0.00000
      6 C4         -0.4424    0.5389    0.0000 CC        1 <0>        0.00000
      7 C5         -0.6973   -0.2457    0.0000 CW        1 <0>        0.00000
      8 S1         -1.5223   -0.2457    0.0000 S         1 <0>        0.00000
      9 N1         -1.7772    0.5389    0.0000 NB        1 <0>        0.00000
     10 C6         -1.1098    1.0239    0.0000 CR        1 <0>        0.00000
     11 O3         -1.1098    1.8489    0.0000 O2        1 <0>        0.00000
     12 C7         -0.2124   -0.9131    0.0000 CT        1 <0>        0.00000
     13 C8          0.2725   -1.5806    0.0000 CT        1 <0>        0.00000
     14 C9         -0.8798   -1.3981    0.0000 CT        1 <0>        0.00000
     15 C10         0.4551   -0.4282    0.0000 CT        1 <0>        0.00000
     16 N2         -0.0993    2.1529    0.0000 N3        1 <0>        0.00000
     17 H1          0.9477    1.2101    0.0000 HP        1 <0>        0.00000
     18 H2          1.4699    2.6628    0.0000 HO        1 <0>        0.00000
     19 H3          0.3423    0.7939    0.0000 HC        1 <0>        0.00000
     20 H4          0.3423    0.7939    0.0000 HC        1 <0>        0.00000
     21 H5          0.2725   -1.5806    0.0000 HC        1 <0>        0.00000
     22 H6          0.2725   -1.5806    0.0000 HC        1 <0>        0.00000
     23 H7          0.2725   -1.5806    0.0000 HC        1 <0>        0.00000
     24 H8         -0.8798   -1.3981    0.0000 HC        1 <0>        0.00000
     25 H9         -0.8798   -1.3981    0.0000 HC        1 <0>        0.00000
     26 H10        -0.8798   -1.3981    0.0000 HC        1 <0>        0.00000
     27 H11         0.4551   -0.4282    0.0000 HC        1 <0>        0.00000
     28 H12         0.4551   -0.4282    0.0000 HC        1 <0>        0.00000
     29 H13         0.4551   -0.4282    0.0000 HC        1 <0>        0.00000
     30 H14        -0.0993    2.1529    0.0000 H         1 <0>        0.00000
     31 H15        -0.0993    2.1529    0.0000 H         1 <0>        0.00000
     32 H16        -0.0993    2.1529    0.0000 H         1 <0>        0.00000
@<TRIPOS>BOND
     1    1    2 1
     2    2    3 2
     3    2    4 1
     4    4    5 1
     5    4   16 1
     6    4   17 1
     7    5    6 1
     8    6    7 2
     9    6   10 1
    10    7    8 1
    11    7   12 1
    12    8    9 1
    13    9   10 2
    14   10   11 1
    15   12   13 1
    16   12   14 1
    17   12   15 1
    18    1   18 1
    19    5   19 1
    20    5   20 1
    21   13   21 1
    22   13   22 1
    23   13   23 1
    24   14   24 1
    25   14   25 1
    26   14   26 1
    27   15   27 1
    28   15   28 1
    29   15   29 1
    30   16   30 1
    31   16   31 1
    32   16   32 1
@<TRIPOS>SUBSTRUCTURE
     1 <0>         1 GROUP 0 A     ****
@<TRIPOS>MOLECULE
492
   21    22     1     0     0
SMALL
NO_CHARGES

@<TRIPOS>ATOM
      1 N1         -1.4181    2.1558    0.0000 N3        1 <0>        0.00000
      2 C1         -0.7036    1.7433    0.0000 CT        1 <0>        0.00000
      3 C2         -0.7036    0.9183    0.0000 CW        1 <0>        0.00000
      4 S1         -0.0362    0.4333    0.0000 S         1 <0>        0.00000
      5 C3         -0.2911   -0.3513    0.0000 CW        1 <0>        0.00000
      6 C4         -1.1161   -0.3513    0.0000 CC        1 <0>        0.00000
      7 C5         -1.3710    0.4333    0.0000 CC        1 <0>        0.00000
      8 C6          0.1938   -1.0187    0.0000 CW        1 <0>        0.00000
      9 S2         -0.0611   -1.8033    0.0000 S         1 <0>        0.00000
     10 C7          0.6063   -2.2883    0.0000 CW        1 <0>        0.00000
     11 C8          1.2738   -1.8033    0.0000 CC        1 <0>        0.00000
     12 C9          1.0188   -1.0187    0.0000 CC        1 <0>        0.00000
     13 H1         -1.4181    2.1558    0.0000 H         1 <0>        0.00000
     14 H2         -1.4181    2.1558    0.0000 H         1 <0>        0.00000
     15 H3         -0.7036    1.7433    0.0000 H1        1 <0>        0.00000
     16 H4         -0.7036    1.7433    0.0000 H1        1 <0>        0.00000
     17 H5         -1.1161   -0.3513    0.0000 HA        1 <0>        0.00000
     18 H6         -1.3710    0.4333    0.0000 HA        1 <0>        0.00000
     19 H7          0.6063   -2.2883    0.0000 H4        1 <0>        0.00000
     20 H8          1.2738   -1.8033    0.0000 HA        1 <0>        0.00000
     21 H9          1.0188   -1.0187    0.0000 HA        1 <0>        0.00000
@<TRIPOS>BOND
     1    1    2 1
     2    2    3 1
     3    3    4 1
     4    4    5 1
     5    5    8 1
     6    5    6 2
     7    6    7 1
     8    3    7 2
     9    8   12 2
    10    8    9 1
    11    9   10 1
    12   10   11 2
    13   11   12 1
    14    1   13 1
    15    1   14 1
    16    2   15 1
    17    2   16 1
    18    6   17 1
    19    7   18 1
    20   10   19 1
    21   11   20 1
    22   12   21 1
@<TRIPOS>SUBSTRUCTURE
     1 <0>         1 GROUP 0 A     ****
@<TRIPOS>MOLECULE
MiniDrugBank_26
  112   113     1     0     0
SMALL
NO_CHARGES

@<TRIPOS>ATOM
      1 C1         11.7355  -11.9464    0.0000 CT        1 <0>        0.00000
      2 C2         11.4654  -11.1668    0.0000 CT        1 <0>        0.00000
      3 C3         12.0055  -10.5432    0.0000 CT        1 <0>        0.00000
      4 C4         11.7355   -9.7637    0.0000 CT        1 <0>        0.00000
      5 C5         12.2756   -9.1400    0.0000 CT        1 <0>        0.00000
      6 C6         12.0055   -8.3605    0.0000 CT        1 <0>        0.00000
      7 N1         11.1954   -8.2046    0.0000 N3        1 <0>        0.00000
      8 N2         10.9253   -7.4250    0.0000 N3        1 <0>        0.00000
      9 C7         10.1152   -7.2691    0.0000 CT        1 <0>        0.00000
     10 C8          9.8452   -6.4895    0.0000 CT        1 <0>        0.00000
     11 C9         10.3852   -5.8659    0.0000 CT        1 <0>        0.00000
     12 C10        10.1152   -5.0863    0.0000 CT        1 <0>        0.00000
     13 C11         9.3051   -4.9304    0.0000 CT        1 <0>        0.00000
     14 C12         9.0350   -4.1509    0.0000 CT        1 <0>        0.00000
     15 C13         9.0350   -6.3336    0.0000 C         1 <0>        0.00000
     16 O1          8.4949   -6.9573    0.0000 O         1 <0>        0.00000
     17 N3          8.7650   -5.5541    0.0000 N         1 <0>        0.00000
     18 C14         7.9548   -5.3982    0.0000 CT        1 <0>        0.00000
     19 C15         7.4148   -6.0218    0.0000 CT        1 <0>        0.00000
     20 C16         7.6848   -6.8014    0.0000 CT        1 <0>        0.00000
     21 C17         7.1447   -7.4250    0.0000 CT        1 <0>        0.00000
     22 C18         7.4148   -8.2046    0.0000 CT        1 <0>        0.00000
     23 N4          6.8747   -8.8282    0.0000 N3        1 <0>        0.00000
     24 C19         7.6848   -4.6186    0.0000 C         1 <0>        0.00000
     25 O2          8.2249   -3.9950    0.0000 O         1 <0>        0.00000
     26 N5          6.8747   -4.4627    0.0000 N         1 <0>        0.00000
     27 C20         6.6046   -3.6832    0.0000 CA        1 <0>        0.00000
     28 C21         5.7945   -3.5272    0.0000 CA        1 <0>        0.00000
     29 C22         5.5244   -2.7477    0.0000 CA        1 <0>        0.00000
     30 C23         6.0645   -2.1240    0.0000 CA        1 <0>        0.00000
     31 C24         6.8747   -2.2800    0.0000 CA        1 <0>        0.00000
     32 C25         7.1447   -3.0595    0.0000 CA        1 <0>        0.00000
     33 C26        13.0857   -9.2959    0.0000 C         1 <0>        0.00000
     34 O3         13.6258   -8.6723    0.0000 O         1 <0>        0.00000
     35 N6         13.3557  -10.0755    0.0000 N         1 <0>        0.00000
     36 C27        14.1659  -10.2314    0.0000 CT        1 <0>        0.00000
     37 C28        14.7060   -9.6077    0.0000 CT        1 <0>        0.00000
     38 C29        14.4359   -8.8282    0.0000 CT        1 <0>        0.00000
     39 C30        14.9760   -8.2046    0.0000 CT        1 <0>        0.00000
     40 C31        14.7060   -7.4250    0.0000 CT        1 <0>        0.00000
     41 N7         15.2460   -6.8014    0.0000 N3        1 <0>        0.00000
     42 C32        14.4359  -11.0109    0.0000 C         1 <0>        0.00000
     43 O4         13.8958  -11.6346    0.0000 O         1 <0>        0.00000
     44 N8         15.2460  -11.1668    0.0000 N         1 <0>        0.00000
     45 C33        15.5161  -11.9464    0.0000 CA        1 <0>        0.00000
     46 C34        16.3262  -12.1023    0.0000 CA        1 <0>        0.00000
     47 C35        16.5963  -12.8819    0.0000 CA        1 <0>        0.00000
     48 C36        16.0562  -13.5055    0.0000 CA        1 <0>        0.00000
     49 C37        15.2460  -13.3496    0.0000 CA        1 <0>        0.00000
     50 C38        14.9760  -12.5700    0.0000 CA        1 <0>        0.00000
     51 H1         11.7355  -11.9464    0.0000 HC        1 <0>        0.00000
     52 H2         11.7355  -11.9464    0.0000 HC        1 <0>        0.00000
     53 H3         11.7355  -11.9464    0.0000 HC        1 <0>        0.00000
     54 H4         11.4654  -11.1668    0.0000 HC        1 <0>        0.00000
     55 H5         11.4654  -11.1668    0.0000 HC        1 <0>        0.00000
     56 H6         12.0055  -10.5432    0.0000 HC        1 <0>        0.00000
     57 H7         12.0055  -10.5432    0.0000 HC        1 <0>        0.00000
     58 H8         11.7355   -9.7637    0.0000 HC        1 <0>        0.00000
     59 H9         11.7355   -9.7637    0.0000 HC        1 <0>        0.00000
     60 H10        12.2756   -9.1400    0.0000 HC        1 <0>        0.00000
     61 H11        12.0055   -8.3605    0.0000 H1        1 <0>        0.00000
     62 H12        12.0055   -8.3605    0.0000 H1        1 <0>        0.00000
     63 H13        11.1954   -8.2046    0.0000 H         1 <0>        0.00000
     64 H14        10.9253   -7.4250    0.0000 H         1 <0>        0.00000
     65 H15        10.1152   -7.2691    0.0000 H1        1 <0>        0.00000
     66 H16        10.1152   -7.2691    0.0000 H1        1 <0>        0.00000
     67 H17         9.8452   -6.4895    0.0000 HC        1 <0>        0.00000
     68 H18        10.3852   -5.8659    0.0000 HC        1 <0>        0.00000
     69 H19        10.3852   -5.8659    0.0000 HC        1 <0>        0.00000
     70 H20        10.1152   -5.0863    0.0000 HC        1 <0>        0.00000
     71 H21        10.1152   -5.0863    0.0000 HC        1 <0>        0.00000
     72 H22         9.3051   -4.9304    0.0000 HC        1 <0>        0.00000
     73 H23         9.3051   -4.9304    0.0000 HC        1 <0>        0.00000
     74 H24         9.0350   -4.1509    0.0000 HC        1 <0>        0.00000
     75 H25         9.0350   -4.1509    0.0000 HC        1 <0>        0.00000
     76 H26         9.0350   -4.1509    0.0000 HC        1 <0>        0.00000
     77 H27         8.7650   -5.5541    0.0000 H         1 <0>        0.00000
     78 H28         7.9548   -5.3982    0.0000 H1        1 <0>        0.00000
     79 H29         7.4148   -6.0218    0.0000 HC        1 <0>        0.00000
     80 H30         7.4148   -6.0218    0.0000 HC        1 <0>        0.00000
     81 H31         7.6848   -6.8014    0.0000 HC        1 <0>        0.00000
     82 H32         7.6848   -6.8014    0.0000 HC        1 <0>        0.00000
     83 H33         7.1447   -7.4250    0.0000 HC        1 <0>        0.00000
     84 H34         7.1447   -7.4250    0.0000 HC        1 <0>        0.00000
     85 H35         7.4148   -8.2046    0.0000 H1        1 <0>        0.00000
     86 H36         7.4148   -8.2046    0.0000 H1        1 <0>        0.00000
     87 H37         6.8747   -8.8282    0.0000 H         1 <0>        0.00000
     88 H38         6.8747   -8.8282    0.0000 H         1 <0>        0.00000
     89 H39         6.8747   -4.4627    0.0000 H         1 <0>        0.00000
     90 H40         5.7945   -3.5272    0.0000 HA        1 <0>        0.00000
     91 H41         5.5244   -2.7477    0.0000 HA        1 <0>        0.00000
     92 H42         6.0645   -2.1240    0.0000 HA        1 <0>        0.00000
     93 H43         6.8747   -2.2800    0.0000 HA        1 <0>        0.00000
     94 H44         7.1447   -3.0595    0.0000 HA        1 <0>        0.00000
     95 H45        13.3557  -10.0755    0.0000 H         1 <0>        0.00000
     96 H46        14.1659  -10.2314    0.0000 H1        1 <0>        0.00000
     97 H47        14.7060   -9.6077    0.0000 HC        1 <0>        0.00000
     98 H48        14.7060   -9.6077    0.0000 HC        1 <0>        0.00000
     99 H49        14.4359   -8.8282    0.0000 HC        1 <0>        0.00000
    100 H50        14.4359   -8.8282    0.0000 HC        1 <0>        0.00000
    101 H51        14.9760   -8.2046    0.0000 HC        1 <0>        0.00000
    102 H52        14.9760   -8.2046    0.0000 HC        1 <0>        0.00000
    103 H53        14.7060   -7.4250    0.0000 H1        1 <0>        0.00000
    104 H54        14.7060   -7.4250    0.0000 H1        1 <0>        0.00000
    105 H55        15.2460   -6.8014    0.0000 H         1 <0>        0.00000
    106 H56        15.2460   -6.8014    0.0000 H         1 <0>        0.00000
    107 H57        15.2460  -11.1668    0.0000 H         1 <0>        0.00000
    108 H58        16.3262  -12.1023    0.0000 HA        1 <0>        0.00000
    109 H59        16.5963  -12.8819    0.0000 HA        1 <0>        0.00000
    110 H60        16.0562  -13.5055    0.0000 HA        1 <0>        0.00000
    111 H61        15.2460  -13.3496    0.0000 HA        1 <0>        0.00000
    112 H62        14.9760  -12.5700    0.0000 HA        1 <0>        0.00000
@<TRIPOS>BOND
     1    1    2 1
     2    2    3 1
     3    3    4 1
     4    4    5 1
     5    5    6 1
     6    6    7 1
     7    7    8 1
     8    8    9 1
     9    9   10 1
    10   10   11 1
    11   11   12 1
    12   12   13 1
    13   13   14 1
    14   10   15 1
    15   15   16 2
    16   15   17 am
    17   17   18 1
    18   18   19 1
    19   19   20 1
    20   20   21 1
    21   21   22 1
    22   22   23 1
    23   18   24 1
    24   24   25 2
    25   24   26 am
    26   26   27 1
    27   27   28 ar
    28   28   29 ar
    29   29   30 ar
    30   30   31 ar
    31   31   32 ar
    32   27   32 ar
    33    5   33 1
    34   33   34 2
    35   33   35 am
    36   35   36 1
    37   36   37 1
    38   37   38 1
    39   38   39 1
    40   39   40 1
    41   40   41 1
    42   36   42 1
    43   42   43 2
    44   42   44 am
    45   44   45 1
    46   45   46 ar
    47   46   47 ar
    48   47   48 ar
    49   48   49 ar
    50   49   50 ar
    51   45   50 ar
    52    1   51 1
    53    1   52 1
    54    1   53 1
    55    2   54 1
    56    2   55 1
    57    3   56 1
    58    3   57 1
    59    4   58 1
    60    4   59 1
    61    5   60 1
    62    6   61 1
    63    6   62 1
    64    7   63 1
    65    8   64 1
    66    9   65 1
    67    9   66 1
    68   10   67 1
    69   11   68 1
    70   11   69 1
    71   12   70 1
    72   12   71 1
    73   13   72 1
    74   13   73 1
    75   14   74 1
    76   14   75 1
    77   14   76 1
    78   17   77 1
    79   18   78 1
    80   19   79 1
    81   19   80 1
    82   20   81 1
    83   20   82 1
    84   21   83 1
    85   21   84 1
    86   22   85 1
    87   22   86 1
    88   23   87 1
    89   23   88 1
    90   26   89 1
    91   28   90 1
    92   29   91 1
    93   30   92 1
    94   31   93 1
    95   32   94 1
    96   35   95 1
    97   36   96 1
    98   37   97 1
    99   37   98 1
   100   38   99 1
   101   38  100 1
   102   39  101 1
   103   39  102 1
   104   40  103 1
   105   40  104 1
   106   41  105 1
   107   41  106 1
   108   44  107 1
   109   46  108 1
   110   47  109 1
   111   48  110 1
   112   49  111 1
   113   50  112 1
@<TRIPOS>SUBSTRUCTURE
     1 <0>         1 GROUP 0 A     ****
@<TRIPOS>MOLECULE
STF
   26    27     1     0     0
SMALL
NO_CHARGES

@<TRIPOS>ATOM
      1 C1         -0.9464   -0.6357    0.0000 CT        1 <0>        0.00000
      2 S1         -0.2789   -1.1206    0.0000 S         1 <0>        0.00000
      3 C2         -0.5339   -1.9053    0.0000 CR        1 <0>        0.00000
      4 N1         -1.3589   -1.9053    0.0000 NB        1 <0>        0.00000
      5 C3         -1.6138   -1.1206    0.0000 C         1 <0>        0.00000
      6 O1         -2.3984   -0.8657    0.0000 O         1 <0>        0.00000
      7 S2         -0.0489   -2.5727    0.0000 SH        1 <0>        0.00000
      8 C4         -0.9464    0.1893    0.0000 CT        1 <0>        0.00000
      9 C5         -0.2319    0.6018    0.0000 CA        1 <0>        0.00000
     10 C6         -0.2319    1.4268    0.0000 CA        1 <0>        0.00000
     11 C7          0.4826    1.8393    0.0000 CA        1 <0>        0.00000
     12 C8          1.1970    1.4268    0.0000 CA        1 <0>        0.00000
     13 C9          1.1970    0.6018    0.0000 CA        1 <0>        0.00000
     14 C10         0.4826    0.1893    0.0000 CA        1 <0>        0.00000
     15 C11         1.9115    1.8393    0.0000 CT        1 <0>        0.00000
     16 F1          2.6260    2.2518    0.0000 F         1 <0>        0.00000
     17 F2          2.3240    1.1248    0.0000 F         1 <0>        0.00000
     18 F3          1.4990    2.5537    0.0000 F         1 <0>        0.00000
     19 H1         -0.4261   -0.3706    0.0000 H1        1 <0>        0.00000
     20 H2         -0.0489   -2.5727    0.0000 HS        1 <0>        0.00000
     21 H3         -0.9464    0.1893    0.0000 HC        1 <0>        0.00000
     22 H4         -0.9464    0.1893    0.0000 HC        1 <0>        0.00000
     23 H5         -0.2319    1.4268    0.0000 HA        1 <0>        0.00000
     24 H6          0.4826    1.8393    0.0000 HA        1 <0>        0.00000
     25 H7          1.1970    0.6018    0.0000 HA        1 <0>        0.00000
     26 H8          0.4826    0.1893    0.0000 HA        1 <0>        0.00000
@<TRIPOS>BOND
     1    1    2 1
     2    1    5 1
     3    1    8 1
     4    1   19 1
     5    2    3 1
     6    3    4 2
     7    3    7 1
     8    4    5 1
     9    5    6 2
    10    8    9 1
    11    9   10 ar
    12    9   14 ar
    13   10   11 ar
    14   11   12 ar
    15   12   13 ar
    16   12   15 1
    17   13   14 ar
    18   15   16 1
    19   15   17 1
    20   15   18 1
    21    7   20 1
    22    8   21 1
    23    8   22 1
    24   10   23 1
    25   11   24 1
    26   13   25 1
    27   14   26 1
@<TRIPOS>SUBSTRUCTURE
     1 <0>         1 GROUP 0 A     ****
@<TRIPOS>MOLECULE
MiniDrugBank_28
   98   102     1     0     0
SMALL
NO_CHARGES

@<TRIPOS>ATOM
      1 C1          4.0654   -0.7573    0.0000 CT        1 <0>        0.00000
      2 C2          4.6084   -1.3784    0.0000 CT        1 <0>        0.00000
      3 C3          4.3420   -2.1593    0.0000 CT        1 <0>        0.00000
      4 C4          5.4178   -1.2187    0.0000 CT        1 <0>        0.00000
      5 C5          5.9608   -1.8398    0.0000 C         1 <0>        0.00000
      6 O1          5.6944   -2.6207    0.0000 O         1 <0>        0.00000
      7 O2          6.7702   -1.6801    0.0000 OS        1 <0>        0.00000
      8 C6          7.0366   -0.8993    0.0000 CT        1 <0>        0.00000
      9 C7          6.4936   -0.2782    0.0000 CT        1 <0>        0.00000
     10 O3          5.6842   -0.4379    0.0000 OS        1 <0>        0.00000
     11 C8          5.1412    0.1832    0.0000 CT        1 <0>        0.00000
     12 C9          4.3318    0.0235    0.0000 CT        1 <0>        0.00000
     13 C10         3.7888    0.6446    0.0000 CT        1 <0>        0.00000
     14 C11         3.5217   -0.1360    0.0000 CT        1 <0>        0.00000
     15 C12         2.9702    0.4845    0.0000 CT        1 <0>        0.00000
     16 C13         2.7817   -0.3640    0.0000 CT        1 <0>        0.00000
     17 C14         1.9499   -0.5631    0.0000 CT        1 <0>        0.00000
     18 C15         1.3468    0.0605    0.0000 CT        1 <0>        0.00000
     19 C16         1.8864    0.5686    0.0000 CT        1 <0>        0.00000
     20 C17         2.3575    1.1189    0.0000 CT        1 <0>        0.00000
     21 C18         2.6973    1.9012    0.0000 CT        1 <0>        0.00000
     22 C19         3.5166    2.0581    0.0000 CT        1 <0>        0.00000
     23 C20         4.0552    1.4254    0.0000 CT        1 <0>        0.00000
     24 C21         4.8646    1.5851    0.0000 CT        1 <0>        0.00000
     25 C22         5.4076    0.9640    0.0000 CT        1 <0>        0.00000
     26 C23         4.7332    2.3996    0.0000 C         1 <0>        0.00000
     27 O4          3.9622    2.6930    0.0000 OH        1 <0>        0.00000
     28 O5          5.3729    2.9206    0.0000 O         1 <0>        0.00000
     29 C24         5.4663    2.1494    0.0000 C         1 <0>        0.00000
     30 O6          6.2560    1.9105    0.0000 OH        1 <0>        0.00000
     31 O7          5.7865    2.9098    0.0000 O         1 <0>        0.00000
     32 C25         1.5239    1.4560    0.0000 CT        1 <0>        0.00000
     33 O8          1.3460    2.2616    0.0000 OH        1 <0>        0.00000
     34 C26         0.9271    0.8174    0.0000 CM        1 <0>        0.00000
     35 C27         0.1083    0.9184    0.0000 CM        1 <0>        0.00000
     36 O9          6.7600    0.5026    0.0000 OS        1 <0>        0.00000
     37 C28         7.5694    0.6623    0.0000 CT        1 <0>        0.00000
     38 C29         7.8358    1.4431    0.0000 CT        1 <0>        0.00000
     39 O10         7.2928    2.0642    0.0000 OS        1 <0>        0.00000
     40 O11         7.5591    2.8450    0.0000 OH        1 <0>        0.00000
     41 C30         8.1124    0.0412    0.0000 CT        1 <0>        0.00000
     42 O12         8.9218    0.2009    0.0000 OS        1 <0>        0.00000
     43 S1          9.4648   -0.4202    0.0000 SO        1 <0>        0.00000
     44 O13         8.8437   -0.9632    0.0000 OH        1 <0>        0.00000
     45 O14        10.0859    0.1228    0.0000 O2        1 <0>        0.00000
     46 O15        10.0078   -1.0413    0.0000 O2        1 <0>        0.00000
     47 C31         7.8460   -0.7396    0.0000 CT        1 <0>        0.00000
     48 O16         8.3890   -1.3607    0.0000 OS        1 <0>        0.00000
     49 S2          8.1226   -2.1415    0.0000 SO        1 <0>        0.00000
     50 O17         7.3418   -1.8752    0.0000 OH        1 <0>        0.00000
     51 O18         8.9034   -2.4079    0.0000 O2        1 <0>        0.00000
     52 O19         7.8562   -2.9224    0.0000 O2        1 <0>        0.00000
     53 H1          4.0654   -0.7573    0.0000 HC        1 <0>        0.00000
     54 H2          4.0654   -0.7573    0.0000 HC        1 <0>        0.00000
     55 H3          4.0654   -0.7573    0.0000 HC        1 <0>        0.00000
     56 H4          4.6084   -1.3784    0.0000 HC        1 <0>        0.00000
     57 H5          4.3420   -2.1593    0.0000 HC        1 <0>        0.00000
     58 H6          4.3420   -2.1593    0.0000 HC        1 <0>        0.00000
     59 H7          4.3420   -2.1593    0.0000 HC        1 <0>        0.00000
     60 H8          5.4178   -1.2187    0.0000 HC        1 <0>        0.00000
     61 H9          5.4178   -1.2187    0.0000 HC        1 <0>        0.00000
     62 H10         7.0366   -0.8993    0.0000 H1        1 <0>        0.00000
     63 H11         6.4936   -0.2782    0.0000 H2        1 <0>        0.00000
     64 H12         5.1412    0.1832    0.0000 H1        1 <0>        0.00000
     65 H13         4.3318    0.0235    0.0000 HC        1 <0>        0.00000
     66 H14         4.3318    0.0235    0.0000 HC        1 <0>        0.00000
     67 H15         3.5217   -0.1360    0.0000 HC        1 <0>        0.00000
     68 H16         3.5217   -0.1360    0.0000 HC        1 <0>        0.00000
     69 H17         3.5217   -0.1360    0.0000 HC        1 <0>        0.00000
     70 H18         2.9702    0.4845    0.0000 HC        1 <0>        0.00000
     71 H19         2.7817   -0.3640    0.0000 HC        1 <0>        0.00000
     72 H20         2.7817   -0.3640    0.0000 HC        1 <0>        0.00000
     73 H21         1.9499   -0.5631    0.0000 HC        1 <0>        0.00000
     74 H22         1.9499   -0.5631    0.0000 HC        1 <0>        0.00000
     75 H23         1.3468    0.0605    0.0000 HC        1 <0>        0.00000
     76 H24         1.8864    0.5686    0.0000 HC        1 <0>        0.00000
     77 H25         1.8864    0.5686    0.0000 HC        1 <0>        0.00000
     78 H26         2.6973    1.9012    0.0000 HC        1 <0>        0.00000
     79 H27         2.6973    1.9012    0.0000 HC        1 <0>        0.00000
     80 H28         3.5166    2.0581    0.0000 HC        1 <0>        0.00000
     81 H29         3.5166    2.0581    0.0000 HC        1 <0>        0.00000
     82 H30         4.0552    1.4254    0.0000 HC        1 <0>        0.00000
     83 H31         5.4076    0.9640    0.0000 HC        1 <0>        0.00000
     84 H32         5.4076    0.9640    0.0000 HC        1 <0>        0.00000
     85 H33         3.9622    2.6930    0.0000 HO        1 <0>        0.00000
     86 H34         6.2560    1.9105    0.0000 HO        1 <0>        0.00000
     87 H35         1.5239    1.4560    0.0000 H1        1 <0>        0.00000
     88 H36         1.3460    2.2616    0.0000 HO        1 <0>        0.00000
     89 H37         0.1083    0.9184    0.0000 HA        1 <0>        0.00000
     90 H38         0.1083    0.9184    0.0000 HA        1 <0>        0.00000
     91 H39         7.5694    0.6623    0.0000 H1        1 <0>        0.00000
     92 H40         7.8358    1.4431    0.0000 H1        1 <0>        0.00000
     93 H41         7.8358    1.4431    0.0000 H1        1 <0>        0.00000
     94 H42         7.5591    2.8450    0.0000 HO        1 <0>        0.00000
     95 H43         8.1124    0.0412    0.0000 H1        1 <0>        0.00000
     96 H44         8.8437   -0.9632    0.0000 HO        1 <0>        0.00000
     97 H45         7.8460   -0.7396    0.0000 H1        1 <0>        0.00000
     98 H46         7.3418   -1.8752    0.0000 HO        1 <0>        0.00000
@<TRIPOS>BOND
     1    1    2 1
     2    2    3 1
     3    2    4 1
     4    4    5 1
     5    5    6 2
     6    5    7 1
     7    7    8 1
     8    8    9 1
     9    9   10 1
    10   10   11 1
    11   11   12 1
    12   12   13 1
    13   13   14 1
    14   13   15 1
    15   15   16 1
    16   16   17 1
    17   17   18 1
    18   18   19 1
    19   19   20 1
    20   15   20 1
    21   20   21 1
    22   21   22 1
    23   22   23 1
    24   13   23 1
    25   23   24 1
    26   24   25 1
    27   11   25 1
    28   24   26 1
    29   26   27 1
    30   26   28 2
    31   24   29 1
    32   29   30 1
    33   29   31 2
    34   20   32 1
    35   32   33 1
    36   32   34 1
    37   18   34 1
    38   34   35 2
    39    9   36 1
    40   36   37 1
    41   37   38 1
    42   38   39 1
    43   39   40 1
    44   37   41 1
    45   41   42 1
    46   42   43 1
    47   43   44 1
    48   43   45 2
    49   43   46 2
    50   41   47 1
    51    8   47 1
    52   47   48 1
    53   48   49 1
    54   49   50 1
    55   49   51 2
    56   49   52 2
    57    1   53 1
    58    1   54 1
    59    1   55 1
    60    2   56 1
    61    3   57 1
    62    3   58 1
    63    3   59 1
    64    4   60 1
    65    4   61 1
    66    8   62 1
    67    9   63 1
    68   11   64 1
    69   12   65 1
    70   12   66 1
    71   14   67 1
    72   14   68 1
    73   14   69 1
    74   15   70 1
    75   16   71 1
    76   16   72 1
    77   17   73 1
    78   17   74 1
    79   18   75 1
    80   19   76 1
    81   19   77 1
    82   21   78 1
    83   21   79 1
    84   22   80 1
    85   22   81 1
    86   23   82 1
    87   25   83 1
    88   25   84 1
    89   27   85 1
    90   30   86 1
    91   32   87 1
    92   33   88 1
    93   35   89 1
    94   35   90 1
    95   37   91 1
    96   38   92 1
    97   38   93 1
    98   40   94 1
    99   41   95 1
   100   44   96 1
   101   47   97 1
   102   50   98 1
@<TRIPOS>SUBSTRUCTURE
     1 <0>         1 GROUP 0 A     ****
@<TRIPOS>MOLECULE
MiniDrugBank_29
   50    55     1     0     0
SMALL
NO_CHARGES

@<TRIPOS>ATOM
      1 O1          0.1489   -0.8979    0.0000 O         1 <0>        0.00000
      2 C1         -0.6580   -0.7263    0.0000 C         1 <0>        0.00000
      3 N1         -1.2101   -1.3394    0.0000 N         1 <0>        0.00000
      4 N2         -2.0170   -1.1679    0.0000 N         1 <0>        0.00000
      5 C2         -2.2720   -0.3833    0.0000 C         1 <0>        0.00000
      6 O2         -3.0790   -0.2117    0.0000 O         1 <0>        0.00000
      7 C3         -1.7199    0.2298    0.0000 CB        1 <0>        0.00000
      8 C4         -1.9749    1.0144    0.0000 CA        1 <0>        0.00000
      9 C5         -1.4229    1.6275    0.0000 CA        1 <0>        0.00000
     10 C6         -0.6159    1.4560    0.0000 CA        1 <0>        0.00000
     11 C7         -0.3609    0.6714    0.0000 CA        1 <0>        0.00000
     12 C8         -0.9130    0.0583    0.0000 CB        1 <0>        0.00000
     13 N3         -1.6778    2.4122    0.0000 NB        1 <0>        0.00000
     14 N4         -2.4624    2.6671    0.0000 NB        1 <0>        0.00000
     15 C9         -2.4624    3.4921    0.0000 CR        1 <0>        0.00000
     16 C10        -3.1299    3.9770    0.0000 CM        1 <0>        0.00000
     17 C11        -3.8835    3.6415    0.0000 CM        1 <0>        0.00000
     18 C12        -4.5510    4.1264    0.0000 CA        1 <0>        0.00000
     19 C13        -5.3046    3.7908    0.0000 CA        1 <0>        0.00000
     20 C14        -5.9721    4.2758    0.0000 CA        1 <0>        0.00000
     21 C15        -5.8858    5.0962    0.0000 CA        1 <0>        0.00000
     22 C16        -5.1322    5.4318    0.0000 CA        1 <0>        0.00000
     23 C17        -4.4647    4.9469    0.0000 CA        1 <0>        0.00000
     24 N5         -1.6778    3.7470    0.0000 NB        1 <0>        0.00000
     25 N6         -1.1929    3.0796    0.0000 N2        1 <0>        0.00000
     26 C18        -0.3679    3.0796    0.0000 CR        1 <0>        0.00000
     27 N7          0.1171    2.4122    0.0000 NB        1 <0>        0.00000
     28 C19         0.9017    2.6671    0.0000 CB        1 <0>        0.00000
     29 C20         0.9017    3.4921    0.0000 CB        1 <0>        0.00000
     30 S1          0.1171    3.7470    0.0000 S         1 <0>        0.00000
     31 C21         1.6161    3.9046    0.0000 CA        1 <0>        0.00000
     32 C22         2.3306    3.4921    0.0000 CA        1 <0>        0.00000
     33 C23         2.3306    2.6671    0.0000 CA        1 <0>        0.00000
     34 C24         1.6161    2.2546    0.0000 CA        1 <0>        0.00000
     35 H1         -1.2101   -1.3394    0.0000 H         1 <0>        0.00000
     36 H2         -2.0170   -1.1679    0.0000 H         1 <0>        0.00000
     37 H3         -1.9749    1.0144    0.0000 HA        1 <0>        0.00000
     38 H4         -0.6159    1.4560    0.0000 HA        1 <0>        0.00000
     39 H5         -0.3609    0.6714    0.0000 HA        1 <0>        0.00000
     40 H6         -3.1299    3.9770    0.0000 HA        1 <0>        0.00000
     41 H7         -3.8835    3.6415    0.0000 HA        1 <0>        0.00000
     42 H8         -5.3046    3.7908    0.0000 HA        1 <0>        0.00000
     43 H9         -5.9721    4.2758    0.0000 HA        1 <0>        0.00000
     44 H10        -5.8858    5.0962    0.0000 HA        1 <0>        0.00000
     45 H11        -5.1322    5.4318    0.0000 HA        1 <0>        0.00000
     46 H12        -4.4647    4.9469    0.0000 HA        1 <0>        0.00000
     47 H13         1.6161    3.9046    0.0000 HA        1 <0>        0.00000
     48 H14         2.3306    3.4921    0.0000 HA        1 <0>        0.00000
     49 H15         2.3306    2.6671    0.0000 HA        1 <0>        0.00000
     50 H16         1.6161    2.2546    0.0000 HA        1 <0>        0.00000
@<TRIPOS>BOND
     1    1    2 2
     2    2    3 am
     3    3    4 1
     4    4    5 am
     5    5    6 2
     6    5    7 1
     7    7    8 ar
     8    8    9 ar
     9    9   10 ar
    10   10   11 ar
    11   11   12 ar
    12    2   12 1
    13    7   12 ar
    14    9   13 1
    15   13   14 2
    16   14   15 1
    17   15   16 1
    18   16   17 2
    19   17   18 1
    20   18   19 ar
    21   19   20 ar
    22   20   21 ar
    23   21   22 ar
    24   22   23 ar
    25   18   23 ar
    26   15   24 2
    27   24   25 1
    28   13   25 1
    29   25   26 1
    30   26   27 2
    31   27   28 1
    32   28   29 ar
    33   29   30 1
    34   26   30 1
    35   29   31 ar
    36   31   32 ar
    37   32   33 ar
    38   33   34 ar
    39   28   34 ar
    40    3   35 1
    41    4   36 1
    42    8   37 1
    43   10   38 1
    44   11   39 1
    45   16   40 1
    46   17   41 1
    47   19   42 1
    48   20   43 1
    49   21   44 1
    50   22   45 1
    51   23   46 1
    52   31   47 1
    53   32   48 1
    54   33   49 1
    55   34   50 1
@<TRIPOS>SUBSTRUCTURE
     1 <0>         1 GROUP 0 A     ****
@<TRIPOS>MOLECULE
4819
   39    39     1     0     0
SMALL
NO_CHARGES

@<TRIPOS>ATOM
      1 Cl1         2.5024    6.7296    0.0000 CL        1 <0>        0.00000
      2 S1          1.7282    2.0975    0.0000 S         1 <0>        0.00000
      3 N1          3.2434    2.9180    0.0000 N3        1 <0>        0.00000
      4 N2          3.9579    0.8555    0.0000 N3        1 <0>        0.00000
      5 N3          4.6724    2.9180    0.0000 NC        1 <0>        0.00000
      6 C1          3.2434    2.0930    0.0000 CT        1 <0>        0.00000
      7 C2          3.9579    1.6805    0.0000 CT        1 <0>        0.00000
      8 C3          2.5289    3.3305    0.0000 CT        1 <0>        0.00000
      9 C4          3.9579    3.3305    0.0000 CA        1 <0>        0.00000
     10 C5          1.8145    2.9180    0.0000 CW        1 <0>        0.00000
     11 C6          3.2434    0.4430    0.0000 CT        1 <0>        0.00000
     12 C7          4.6724    0.4430    0.0000 CT        1 <0>        0.00000
     13 C8          3.9579    4.1555    0.0000 CA        1 <0>        0.00000
     14 C9          1.0607    3.2536    0.0000 CC        1 <0>        0.00000
     15 C10         0.5087    2.6405    0.0000 CC        1 <0>        0.00000
     16 C11         4.6724    4.5680    0.0000 CA        1 <0>        0.00000
     17 C12         0.9212    1.9260    0.0000 CW        1 <0>        0.00000
     18 C13         5.3869    3.3305    0.0000 CA        1 <0>        0.00000
     19 C14         5.3869    4.1555    0.0000 CA        1 <0>        0.00000
     20 H1          2.5024    6.7296    0.0000 HC        1 <0>        0.00000
     21 H2          3.2434    2.0930    0.0000 H1        1 <0>        0.00000
     22 H3          3.2434    2.0930    0.0000 H1        1 <0>        0.00000
     23 H4          3.9579    1.6805    0.0000 H1        1 <0>        0.00000
     24 H5          3.9579    1.6805    0.0000 H1        1 <0>        0.00000
     25 H6          2.5289    3.3305    0.0000 H1        1 <0>        0.00000
     26 H7          2.5289    3.3305    0.0000 H1        1 <0>        0.00000
     27 H8          3.2434    0.4430    0.0000 H1        1 <0>        0.00000
     28 H9          3.2434    0.4430    0.0000 H1        1 <0>        0.00000
     29 H10         3.2434    0.4430    0.0000 H1        1 <0>        0.00000
     30 H11         4.6724    0.4430    0.0000 H1        1 <0>        0.00000
     31 H12         4.6724    0.4430    0.0000 H1        1 <0>        0.00000
     32 H13         4.6724    0.4430    0.0000 H1        1 <0>        0.00000
     33 H14         3.9579    4.1555    0.0000 HA        1 <0>        0.00000
     34 H15         1.0607    3.2536    0.0000 HA        1 <0>        0.00000
     35 H16         0.5087    2.6405    0.0000 HA        1 <0>        0.00000
     36 H17         4.6724    4.5680    0.0000 HA        1 <0>        0.00000
     37 H18         0.9212    1.9260    0.0000 H4        1 <0>        0.00000
     38 H19         5.3869    3.3305    0.0000 H4        1 <0>        0.00000
     39 H20         5.3869    4.1555    0.0000 HA        1 <0>        0.00000
@<TRIPOS>BOND
     1    2   10 1
     2    2   17 1
     3    3    6 1
     4    3    8 1
     5    3    9 1
     6    4    7 1
     7    4   11 1
     8    4   12 1
     9    5    9 ar
    10    5   18 ar
    11    6    7 1
    12    8   10 1
    13    9   13 ar
    14   10   14 2
    15   13   16 ar
    16   14   15 1
    17   15   17 2
    18   16   19 ar
    19   18   19 ar
    20    1   20 1
    21    6   21 1
    22    6   22 1
    23    7   23 1
    24    7   24 1
    25    8   25 1
    26    8   26 1
    27   11   27 1
    28   11   28 1
    29   11   29 1
    30   12   30 1
    31   12   31 1
    32   12   32 1
    33   13   33 1
    34   14   34 1
    35   15   35 1
    36   16   36 1
    37   17   37 1
    38   18   38 1
    39   19   39 1
@<TRIPOS>SUBSTRUCTURE
     1 <0>         1 GROUP 0 A     ****
@<TRIPOS>MOLECULE
717
   48    51     1     0     0
SMALL
NO_CHARGES

@<TRIPOS>ATOM
      1 O1          6.6263    1.5550    0.0000 OH        1 <0>        0.00000
      2 O2          1.6500   -1.9996    0.0000 O         1 <0>        0.00000
      3 C1          6.0993   -0.3064    0.0000 CT        1 <0>        0.00000
      4 C2          6.0993    0.5186    0.0000 CT        1 <0>        0.00000
      5 C3          5.3849   -0.7189    0.0000 CT        1 <0>        0.00000
      6 C4          4.6703   -0.3064    0.0000 CT        1 <0>        0.00000
      7 C5          5.3849    0.9311    0.0000 CT        1 <0>        0.00000
      8 C6          6.8799    0.7700    0.0000 CT        1 <0>        0.00000
      9 C7          6.8799   -0.5579    0.0000 CT        1 <0>        0.00000
     10 C8          4.6703    0.5186    0.0000 CT        1 <0>        0.00000
     11 C9          3.9196   -0.7246    0.0000 CT        1 <0>        0.00000
     12 C10         7.3614    0.1061    0.0000 CT        1 <0>        0.00000
     13 C11         5.3981   -1.5782    0.0000 CT        1 <0>        0.00000
     14 C12         6.0993    1.3436    0.0000 CT        1 <0>        0.00000
     15 C13         4.6572   -2.0136    0.0000 CT        1 <0>        0.00000
     16 C14         3.9130   -1.5839    0.0000 CM        1 <0>        0.00000
     17 C15         3.1550   -0.2592    0.0000 CT        1 <0>        0.00000
     18 C16         7.5482    1.2538    0.0000 C2        1 <0>        0.00000
     19 C17         2.3729   -0.6948    0.0000 CT        1 <0>        0.00000
     20 C18         3.1413   -2.0374    0.0000 CM        1 <0>        0.00000
     21 C19         2.3660   -1.5899    0.0000 C         1 <0>        0.00000
     22 C20         8.2165    1.7375    0.0000 C2        1 <0>        0.00000
     23 H1          6.1691   -0.9628    0.0000 HC        1 <0>        0.00000
     24 H2          5.9589   -1.0445    0.0000 HC        1 <0>        0.00000
     25 H3          5.2420    0.0236    0.0000 HC        1 <0>        0.00000
     26 H4          3.9323   -0.0647    0.0000 HC        1 <0>        0.00000
     27 H5          6.6263    1.5550    0.0000 HO        1 <0>        0.00000
     28 H6          5.3849    0.9311    0.0000 HC        1 <0>        0.00000
     29 H7          5.3849    0.9311    0.0000 HC        1 <0>        0.00000
     30 H8          6.8799   -0.5579    0.0000 HC        1 <0>        0.00000
     31 H9          6.8799   -0.5579    0.0000 HC        1 <0>        0.00000
     32 H10         4.6703    0.5186    0.0000 HC        1 <0>        0.00000
     33 H11         4.6703    0.5186    0.0000 HC        1 <0>        0.00000
     34 H12         7.3614    0.1061    0.0000 HC        1 <0>        0.00000
     35 H13         7.3614    0.1061    0.0000 HC        1 <0>        0.00000
     36 H14         5.3981   -1.5782    0.0000 HC        1 <0>        0.00000
     37 H15         5.3981   -1.5782    0.0000 HC        1 <0>        0.00000
     38 H16         6.0993    1.3436    0.0000 HC        1 <0>        0.00000
     39 H17         6.0993    1.3436    0.0000 HC        1 <0>        0.00000
     40 H18         6.0993    1.3436    0.0000 HC        1 <0>        0.00000
     41 H19         4.6572   -2.0136    0.0000 HC        1 <0>        0.00000
     42 H20         4.6572   -2.0136    0.0000 HC        1 <0>        0.00000
     43 H21         3.1550   -0.2592    0.0000 HC        1 <0>        0.00000
     44 H22         3.1550   -0.2592    0.0000 HC        1 <0>        0.00000
     45 H23         2.3729   -0.6948    0.0000 HC        1 <0>        0.00000
     46 H24         2.3729   -0.6948    0.0000 HC        1 <0>        0.00000
     47 H25         3.1413   -2.0374    0.0000 HA        1 <0>        0.00000
     48 H26         8.2165    1.7375    0.0000 HC        1 <0>        0.00000
@<TRIPOS>BOND
     1    1    8 1
     2    2   21 2
     3    3    4 1
     4    3    5 1
     5    3    9 1
     6    3   23 1
     7    4    7 1
     8    4    8 1
     9    4   14 1
    10    5    6 1
    11    5   13 1
    12    5   24 1
    13    6   10 1
    14    6   11 1
    15    6   25 1
    16    7   10 1
    17    8   12 1
    18    8   18 1
    19    9   12 1
    20   11   16 1
    21   11   17 1
    22   11   26 1
    23   13   15 1
    24   15   16 1
    25   16   20 2
    26   17   19 1
    27   18   22 3
    28   19   21 1
    29   20   21 1
    30    1   27 1
    31    7   28 1
    32    7   29 1
    33    9   30 1
    34    9   31 1
    35   10   32 1
    36   10   33 1
    37   12   34 1
    38   12   35 1
    39   13   36 1
    40   13   37 1
    41   14   38 1
    42   14   39 1
    43   14   40 1
    44   15   41 1
    45   15   42 1
    46   17   43 1
    47   17   44 1
    48   19   45 1
    49   19   46 1
    50   20   47 1
    51   22   48 1
@<TRIPOS>SUBSTRUCTURE
     1 <0>         1 GROUP 0 A     ****
@<TRIPOS>MOLECULE
MiniDrugBank_32
   81    84     1     0     0
SMALL
NO_CHARGES

@<TRIPOS>ATOM
      1 C1          1.5971   -3.0967    0.0000 CT        1 <0>        0.00000
      2 C2          0.8826   -2.6842    0.0000 C         1 <0>        0.00000
      3 O1          0.1681   -3.0967    0.0000 O         1 <0>        0.00000
      4 N1          0.8826   -1.8592    0.0000 N         1 <0>        0.00000
      5 C3          1.5971   -1.4467    0.0000 CT        1 <0>        0.00000
      6 C4          1.5971   -0.6217    0.0000 CT        1 <0>        0.00000
      7 C5          0.8826   -0.2092    0.0000 CA        1 <0>        0.00000
      8 C6          0.1681   -0.6217    0.0000 CA        1 <0>        0.00000
      9 C7         -0.5463   -0.2092    0.0000 CA        1 <0>        0.00000
     10 C8         -0.5463    0.6158    0.0000 CA        1 <0>        0.00000
     11 O2         -1.2608    1.0283    0.0000 OS        1 <0>        0.00000
     12 C9         -1.2608    1.8533    0.0000 CT        1 <0>        0.00000
     13 C10        -1.9753    2.2658    0.0000 C         1 <0>        0.00000
     14 O3         -1.9753    3.0908    0.0000 OH        1 <0>        0.00000
     15 O4         -2.6897    1.8533    0.0000 O         1 <0>        0.00000
     16 C11         0.1681    1.0283    0.0000 CA        1 <0>        0.00000
     17 C12         0.8826    0.6158    0.0000 CA        1 <0>        0.00000
     18 P1          0.1681    1.8533    0.0000 P         1 <0>        0.00000
     19 O5          0.1681    2.6783    0.0000 OH        1 <0>        0.00000
     20 O6          0.9931    1.8533    0.0000 OH        1 <0>        0.00000
     21 O7         -0.6569    1.8533    0.0000 O         1 <0>        0.00000
     22 C13         2.3116   -1.8592    0.0000 C         1 <0>        0.00000
     23 O8          3.0260   -1.4467    0.0000 O         1 <0>        0.00000
     24 N2          2.3116   -2.6842    0.0000 N         1 <0>        0.00000
     25 C14         3.0260   -3.0967    0.0000 CT        1 <0>        0.00000
     26 C15         3.7077   -2.6319    0.0000 CT        1 <0>        0.00000
     27 C16         4.4960   -2.8751    0.0000 CT        1 <0>        0.00000
     28 C17         4.7974   -3.6431    0.0000 CT        1 <0>        0.00000
     29 C18         4.3849   -4.3575    0.0000 CT        1 <0>        0.00000
     30 N3          3.5691   -4.4805    0.0000 N         1 <0>        0.00000
     31 C19         3.3260   -5.2688    0.0000 CT        1 <0>        0.00000
     32 C20         3.8871   -5.8736    0.0000 CA        1 <0>        0.00000
     33 C21         4.6914   -5.6900    0.0000 CA        1 <0>        0.00000
     34 C22         5.2526   -6.2948    0.0000 CA        1 <0>        0.00000
     35 C23         5.0094   -7.0831    0.0000 CP        1 <0>        0.00000
     36 C24         4.2051   -7.2667    0.0000 CA        1 <0>        0.00000
     37 C25         3.6439   -6.6620    0.0000 CA        1 <0>        0.00000
     38 C26         5.5705   -7.6879    0.0000 CP        1 <0>        0.00000
     39 C27         6.3749   -7.5043    0.0000 CA        1 <0>        0.00000
     40 C28         6.9360   -8.1091    0.0000 CA        1 <0>        0.00000
     41 C29         6.6928   -8.8974    0.0000 CA        1 <0>        0.00000
     42 C30         5.8885   -9.0810    0.0000 CA        1 <0>        0.00000
     43 C31         5.3274   -8.4763    0.0000 CA        1 <0>        0.00000
     44 C32         2.9644   -3.9193    0.0000 C         1 <0>        0.00000
     45 O9          2.1964   -4.2208    0.0000 O         1 <0>        0.00000
     46 H1          1.5971   -3.0967    0.0000 HC        1 <0>        0.00000
     47 H2          1.5971   -3.0967    0.0000 HC        1 <0>        0.00000
     48 H3          1.5971   -3.0967    0.0000 HC        1 <0>        0.00000
     49 H4          0.8826   -1.8592    0.0000 H         1 <0>        0.00000
     50 H5          1.5971   -1.4467    0.0000 H1        1 <0>        0.00000
     51 H6          1.5971   -0.6217    0.0000 HC        1 <0>        0.00000
     52 H7          1.5971   -0.6217    0.0000 HC        1 <0>        0.00000
     53 H8          0.1681   -0.6217    0.0000 HA        1 <0>        0.00000
     54 H9         -0.5463   -0.2092    0.0000 HA        1 <0>        0.00000
     55 H10        -1.2608    1.8533    0.0000 H1        1 <0>        0.00000
     56 H11        -1.2608    1.8533    0.0000 H1        1 <0>        0.00000
     57 H12        -1.9753    3.0908    0.0000 HO        1 <0>        0.00000
     58 H13         0.8826    0.6158    0.0000 HA        1 <0>        0.00000
     59 H14         0.1681    2.6783    0.0000 HO        1 <0>        0.00000
     60 H15         0.9931    1.8533    0.0000 HO        1 <0>        0.00000
     61 H16         2.3116   -2.6842    0.0000 H         1 <0>        0.00000
     62 H17         3.0260   -3.0967    0.0000 H1        1 <0>        0.00000
     63 H18         3.7077   -2.6319    0.0000 HC        1 <0>        0.00000
     64 H19         3.7077   -2.6319    0.0000 HC        1 <0>        0.00000
     65 H20         4.4960   -2.8751    0.0000 HC        1 <0>        0.00000
     66 H21         4.4960   -2.8751    0.0000 HC        1 <0>        0.00000
     67 H22         4.7974   -3.6431    0.0000 HC        1 <0>        0.00000
     68 H23         4.7974   -3.6431    0.0000 HC        1 <0>        0.00000
     69 H24         4.3849   -4.3575    0.0000 H1        1 <0>        0.00000
     70 H25         4.3849   -4.3575    0.0000 H1        1 <0>        0.00000
     71 H26         3.3260   -5.2688    0.0000 H1        1 <0>        0.00000
     72 H27         3.3260   -5.2688    0.0000 H1        1 <0>        0.00000
     73 H28         4.6914   -5.6900    0.0000 HA        1 <0>        0.00000
     74 H29         5.2526   -6.2948    0.0000 HA        1 <0>        0.00000
     75 H30         4.2051   -7.2667    0.0000 HA        1 <0>        0.00000
     76 H31         3.6439   -6.6620    0.0000 HA        1 <0>        0.00000
     77 H32         6.3749   -7.5043    0.0000 HA        1 <0>        0.00000
     78 H33         6.9360   -8.1091    0.0000 HA        1 <0>        0.00000
     79 H34         6.6928   -8.8974    0.0000 HA        1 <0>        0.00000
     80 H35         5.8885   -9.0810    0.0000 HA        1 <0>        0.00000
     81 H36         5.3274   -8.4763    0.0000 HA        1 <0>        0.00000
@<TRIPOS>BOND
     1    1    2 1
     2    2    3 2
     3    2    4 am
     4    4    5 1
     5    5    6 1
     6    6    7 1
     7    7    8 ar
     8    8    9 ar
     9    9   10 ar
    10   10   11 1
    11   11   12 1
    12   12   13 1
    13   13   14 1
    14   13   15 2
    15   10   16 ar
    16   16   17 ar
    17    7   17 ar
    18   16   18 1
    19   18   19 1
    20   18   20 1
    21   18   21 2
    22    5   22 1
    23   22   23 2
    24   22   24 am
    25   24   25 1
    26   25   26 1
    27   26   27 1
    28   27   28 1
    29   28   29 1
    30   29   30 1
    31   30   31 1
    32   31   32 1
    33   32   33 ar
    34   33   34 ar
    35   34   35 ar
    36   35   36 ar
    37   36   37 ar
    38   32   37 ar
    39   35   38 1
    40   38   39 ar
    41   39   40 ar
    42   40   41 ar
    43   41   42 ar
    44   42   43 ar
    45   38   43 ar
    46   30   44 am
    47   25   44 1
    48   44   45 2
    49    1   46 1
    50    1   47 1
    51    1   48 1
    52    4   49 1
    53    5   50 1
    54    6   51 1
    55    6   52 1
    56    8   53 1
    57    9   54 1
    58   12   55 1
    59   12   56 1
    60   14   57 1
    61   17   58 1
    62   19   59 1
    63   20   60 1
    64   24   61 1
    65   25   62 1
    66   26   63 1
    67   26   64 1
    68   27   65 1
    69   27   66 1
    70   28   67 1
    71   28   68 1
    72   29   69 1
    73   29   70 1
    74   31   71 1
    75   31   72 1
    76   33   73 1
    77   34   74 1
    78   36   75 1
    79   37   76 1
    80   39   77 1
    81   40   78 1
    82   41   79 1
    83   42   80 1
    84   43   81 1
@<TRIPOS>SUBSTRUCTURE
     1 <0>         1 GROUP 0 A     ****
@<TRIPOS>MOLECULE
IS2
   27    27     1     0     0
SMALL
NO_CHARGES

@<TRIPOS>ATOM
      1 C1          1.2541    0.4213    0.0000 CA        1 <0>        0.00000
      2 C2          1.2541   -0.4037    0.0000 CA        1 <0>        0.00000
      3 C3          0.5397   -0.8162    0.0000 CA        1 <0>        0.00000
      4 C4         -0.1748   -0.4037    0.0000 CA        1 <0>        0.00000
      5 C5         -0.1748    0.4213    0.0000 CA        1 <0>        0.00000
      6 C6          0.5397    0.8338    0.0000 CA        1 <0>        0.00000
      7 N1         -0.8893   -0.8162    0.0000 N         1 <0>        0.00000
      8 C7         -1.6037   -0.4037    0.0000 C         1 <0>        0.00000
      9 O1         -1.6037    0.4213    0.0000 O         1 <0>        0.00000
     10 P1         -2.3182   -0.8162    0.0000 P         1 <0>        0.00000
     11 O2         -3.0327   -1.2287    0.0000 OH        1 <0>        0.00000
     12 O3         -1.9057   -1.5307    0.0000 OH        1 <0>        0.00000
     13 O4         -2.7307   -0.1017    0.0000 O         1 <0>        0.00000
     14 C8          1.9686    0.8338    0.0000 CT        1 <0>        0.00000
     15 C9          1.9686    1.6588    0.0000 CT        1 <0>        0.00000
     16 H1          1.2541   -0.4037    0.0000 HA        1 <0>        0.00000
     17 H2          0.5397   -0.8162    0.0000 HA        1 <0>        0.00000
     18 H3         -0.1748    0.4213    0.0000 HA        1 <0>        0.00000
     19 H4          0.5397    0.8338    0.0000 HA        1 <0>        0.00000
     20 H5         -0.8893   -0.8162    0.0000 H         1 <0>        0.00000
     21 H6         -3.0327   -1.2287    0.0000 HO        1 <0>        0.00000
     22 H7         -1.9057   -1.5307    0.0000 HO        1 <0>        0.00000
     23 H8          1.9686    0.8338    0.0000 HC        1 <0>        0.00000
     24 H9          1.9686    0.8338    0.0000 HC        1 <0>        0.00000
     25 H10         1.9686    1.6588    0.0000 HC        1 <0>        0.00000
     26 H11         1.9686    1.6588    0.0000 HC        1 <0>        0.00000
     27 H12         1.9686    1.6588    0.0000 HC        1 <0>        0.00000
@<TRIPOS>BOND
     1    1    2 ar
     2    1    6 ar
     3    1   14 1
     4    2    3 ar
     5    3    4 ar
     6    4    5 ar
     7    4    7 1
     8    5    6 ar
     9    7    8 am
    10    8    9 2
    11    8   10 1
    12   10   11 1
    13   10   12 1
    14   10   13 2
    15   14   15 1
    16    2   16 1
    17    3   17 1
    18    5   18 1
    19    6   19 1
    20    7   20 1
    21   11   21 1
    22   12   22 1
    23   14   23 1
    24   14   24 1
    25   15   25 1
    26   15   26 1
    27   15   27 1
@<TRIPOS>SUBSTRUCTURE
     1 <0>         1 GROUP 0 A     ****
@<TRIPOS>MOLECULE
MiniDrugBank_34
   55    58     1     0     0
SMALL
NO_CHARGES

@<TRIPOS>ATOM
      1 C1         -0.4386    0.7834    0.0000 CT        1 <0>        0.00000
      2 C2         -1.1526    0.3701    0.0000 CT        1 <0>        0.00000
      3 C3          0.2753    0.3701    0.0000 CT        1 <0>        0.00000
      4 O1         -1.1526   -0.4566    0.0000 OS        1 <0>        0.00000
      5 C4         -0.4386   -0.8699    0.0000 CT        1 <0>        0.00000
      6 O2         -1.4782    1.0464    0.0000 OS        1 <0>        0.00000
      7 O3         -1.9542    0.5581    0.0000 OS        1 <0>        0.00000
      8 C5         -0.4762    1.6394    0.0000 CT        1 <0>        0.00000
      9 C6         -2.3049    1.3012    0.0000 CT        1 <0>        0.00000
     10 C7          0.2753   -0.4566    0.0000 CT        1 <0>        0.00000
     11 O4         -1.5408    1.7019    0.0000 OS        1 <0>        0.00000
     12 C8          0.9099    0.8711    0.0000 CT        1 <0>        0.00000
     13 C9         -1.1317    2.2239    0.0000 CT        1 <0>        0.00000
     14 O5         -0.4428   -1.6966    0.0000 OS        1 <0>        0.00000
     15 C10         0.2126    2.1028    0.0000 CT        1 <0>        0.00000
     16 C11         0.9140    1.6853    0.0000 CT        1 <0>        0.00000
     17 C12        -1.9417    2.0485    0.0000 CT        1 <0>        0.00000
     18 C13        -3.1316    1.3095    0.0000 CT        1 <0>        0.00000
     19 C14         0.9892   -0.8699    0.0000 CT        1 <0>        0.00000
     20 C15         0.2084    2.9295    0.0000 CT        1 <0>        0.00000
     21 H1         -1.8665   -0.0431    0.0000 H2        1 <0>        0.00000
     22 H2         -0.5012    2.5244    0.0000 HC        1 <0>        0.00000
     23 H3          0.9912   -0.0431    0.0000 HC        1 <0>        0.00000
     24 C16         0.2740   -2.1046    0.0000 C         1 <0>        0.00000
     25 O6          0.2740   -2.9296    0.0000 O         1 <0>        0.00000
     26 C17         0.9872   -1.6899    0.0000 CT        1 <0>        0.00000
     27 C18         1.7028   -2.1002    0.0000 CT        1 <0>        0.00000
     28 C19         2.4160   -1.6855    0.0000 C         1 <0>        0.00000
     29 O7          3.1317   -2.0958    0.0000 OH        1 <0>        0.00000
     30 O8          2.4135   -0.8605    0.0000 O         1 <0>        0.00000
     31 H4         -0.4386   -0.8699    0.0000 H2        1 <0>        0.00000
     32 H5          0.2753   -0.4566    0.0000 HC        1 <0>        0.00000
     33 H6          0.9099    0.8711    0.0000 HC        1 <0>        0.00000
     34 H7          0.9099    0.8711    0.0000 HC        1 <0>        0.00000
     35 H8         -1.1317    2.2239    0.0000 HC        1 <0>        0.00000
     36 H9         -1.1317    2.2239    0.0000 HC        1 <0>        0.00000
     37 H10         0.2126    2.1028    0.0000 HC        1 <0>        0.00000
     38 H11         0.9140    1.6853    0.0000 HC        1 <0>        0.00000
     39 H12         0.9140    1.6853    0.0000 HC        1 <0>        0.00000
     40 H13        -1.9417    2.0485    0.0000 HC        1 <0>        0.00000
     41 H14        -1.9417    2.0485    0.0000 HC        1 <0>        0.00000
     42 H15        -3.1316    1.3095    0.0000 HC        1 <0>        0.00000
     43 H16        -3.1316    1.3095    0.0000 HC        1 <0>        0.00000
     44 H17        -3.1316    1.3095    0.0000 HC        1 <0>        0.00000
     45 H18         0.9892   -0.8699    0.0000 HC        1 <0>        0.00000
     46 H19         0.9892   -0.8699    0.0000 HC        1 <0>        0.00000
     47 H20         0.9892   -0.8699    0.0000 HC        1 <0>        0.00000
     48 H21         0.2084    2.9295    0.0000 HC        1 <0>        0.00000
     49 H22         0.2084    2.9295    0.0000 HC        1 <0>        0.00000
     50 H23         0.2084    2.9295    0.0000 HC        1 <0>        0.00000
     51 H24         0.9872   -1.6899    0.0000 HC        1 <0>        0.00000
     52 H25         0.9872   -1.6899    0.0000 HC        1 <0>        0.00000
     53 H26         1.7028   -2.1002    0.0000 HC        1 <0>        0.00000
     54 H27         1.7028   -2.1002    0.0000 HC        1 <0>        0.00000
     55 H28         3.1317   -2.0958    0.0000 HO        1 <0>        0.00000
@<TRIPOS>BOND
     1    1    2 1
     2    1    3 1
     3    2    4 1
     4    5   10 1
     5    1    6 1
     6    2    7 1
     7    1    8 1
     8    9   11 1
     9    3   10 1
    10    6   11 1
    11    3   12 1
    12    8   13 1
    13    5   14 1
    14    8   15 1
    15   15   16 1
    16   13   17 1
    17    9   18 1
    18   10   19 1
    19   15   20 1
    20    2   21 1
    21    8   22 1
    22   12   16 1
    23    9   17 1
    24    7    9 1
    25    4    5 1
    26    3   23 1
    27   14   24 1
    28   24   25 2
    29   24   26 1
    30   26   27 1
    31   27   28 1
    32   28   29 1
    33   28   30 2
    34    5   31 1
    35   10   32 1
    36   12   33 1
    37   12   34 1
    38   13   35 1
    39   13   36 1
    40   15   37 1
    41   16   38 1
    42   16   39 1
    43   17   40 1
    44   17   41 1
    45   18   42 1
    46   18   43 1
    47   18   44 1
    48   19   45 1
    49   19   46 1
    50   19   47 1
    51   20   48 1
    52   20   49 1
    53   20   50 1
    54   26   51 1
    55   26   52 1
    56   27   53 1
    57   27   54 1
    58   29   55 1
@<TRIPOS>SUBSTRUCTURE
     1 <0>         1 GROUP 0 A     ****
@<TRIPOS>MOLECULE
MiniDrugBank_35
   15    14     1     0     0
SMALL
NO_CHARGES

@<TRIPOS>ATOM
      1 N1          1.9520    1.9520    0.0000 N3        1 <0>        0.00000
      2 C1          1.9520    1.1270    0.0000 CT        1 <0>        0.00000
      3 C2          1.2375    0.7145    0.0000 CT        1 <0>        0.00000
      4 S1          0.5230    1.1270    0.0000 S         1 <0>        0.00000
      5 O1         -0.1914    0.7145    0.0000 OH        1 <0>        0.00000
      6 C3          2.6664    0.7145    0.0000 C         1 <0>        0.00000
      7 O2          3.3809    1.1270    0.0000 OH        1 <0>        0.00000
      8 O3          2.6664   -0.1105    0.0000 O         1 <0>        0.00000
      9 H1          1.9520    1.9520    0.0000 H         1 <0>        0.00000
     10 H2          1.9520    1.9520    0.0000 H         1 <0>        0.00000
     11 H3          1.9520    1.1270    0.0000 H1        1 <0>        0.00000
     12 H4          1.2375    0.7145    0.0000 H1        1 <0>        0.00000
     13 H5          1.2375    0.7145    0.0000 H1        1 <0>        0.00000
     14 H6         -0.1914    0.7145    0.0000 HO        1 <0>        0.00000
     15 H7          3.3809    1.1270    0.0000 HO        1 <0>        0.00000
@<TRIPOS>BOND
     1    1    2 1
     2    2    3 1
     3    3    4 1
     4    4    5 1
     5    2    6 1
     6    6    7 1
     7    6    8 2
     8    1    9 1
     9    1   10 1
    10    2   11 1
    11    3   12 1
    12    3   13 1
    13    5   14 1
    14    7   15 1
@<TRIPOS>SUBSTRUCTURE
     1 <0>         1 GROUP 0 A     ****
@<TRIPOS>MOLECULE
MiniDrugBank_36
   51    55     1     0     0
SMALL
NO_CHARGES

@<TRIPOS>ATOM
      1 O1          4.6015    1.3511    0.0000 O         1 <0>        0.00000
      2 C1          3.8888    0.9367    0.0000 C         1 <0>        0.00000
      3 O2          3.8888    0.1122    0.0000 OH        1 <0>        0.00000
      4 C2          3.1736    1.3468    0.0000 CA        1 <0>        0.00000
      5 C3          3.1736    2.1756    0.0000 CA        1 <0>        0.00000
      6 C4          2.4583    2.5857    0.0000 CA        1 <0>        0.00000
      7 C5          1.7431    2.1756    0.0000 CA        1 <0>        0.00000
      8 C6          1.7431    1.3468    0.0000 CP        1 <0>        0.00000
      9 C7          1.0278    0.9367    0.0000 CP        1 <0>        0.00000
     10 N1          0.3126    1.3553    0.0000 NC        1 <0>        0.00000
     11 C8         -0.4025    0.9367    0.0000 CA        1 <0>        0.00000
     12 N2         -1.1178    1.3468    0.0000 N         1 <0>        0.00000
     13 C9         -1.8306    0.9325    0.0000 C         1 <0>        0.00000
     14 C10        -2.5459    1.3426    0.0000 CJ        1 <0>        0.00000
     15 C11        -3.0737    0.7093    0.0000 CA        1 <0>        0.00000
     16 C12        -3.8905    0.8530    0.0000 CA        1 <0>        0.00000
     17 C13        -4.4188    0.2193    0.0000 CA        1 <0>        0.00000
     18 C14        -4.1394   -0.5564    0.0000 CA        1 <0>        0.00000
     19 O3         -4.5291   -1.2897    0.0000 OS        1 <0>        0.00000
     20 C15        -3.9520   -1.8868    0.0000 CT        1 <0>        0.00000
     21 F1         -3.5147   -2.5857    0.0000 F         1 <0>        0.00000
     22 F2         -4.6015   -2.3947    0.0000 F         1 <0>        0.00000
     23 O4         -3.2060   -1.5224    0.0000 OS        1 <0>        0.00000
     24 C16        -3.3218   -0.7002    0.0000 CA        1 <0>        0.00000
     25 C17        -2.7853   -0.0680    0.0000 CA        1 <0>        0.00000
     26 C18        -3.0781    1.9722    0.0000 CJ        1 <0>        0.00000
     27 C19        -2.2653    2.1196    0.0000 CJ        1 <0>        0.00000
     28 O5         -1.8306    0.1080    0.0000 O         1 <0>        0.00000
     29 C20        -0.4025    0.1079    0.0000 CA        1 <0>        0.00000
     30 C21         0.3126   -0.3021    0.0000 CA        1 <0>        0.00000
     31 C22         1.0278    0.1079    0.0000 CA        1 <0>        0.00000
     32 C23         1.7412   -0.3053    0.0000 CT        1 <0>        0.00000
     33 C24         2.4583    0.9282    0.0000 CA        1 <0>        0.00000
     34 H1          3.8888    0.1122    0.0000 HO        1 <0>        0.00000
     35 H2          3.1736    2.1756    0.0000 HA        1 <0>        0.00000
     36 H3          2.4583    2.5857    0.0000 HA        1 <0>        0.00000
     37 H4          1.7431    2.1756    0.0000 HA        1 <0>        0.00000
     38 H5         -1.1178    1.3468    0.0000 H         1 <0>        0.00000
     39 H6         -3.8905    0.8530    0.0000 HA        1 <0>        0.00000
     40 H7         -4.4188    0.2193    0.0000 HA        1 <0>        0.00000
     41 H8         -2.7853   -0.0680    0.0000 HA        1 <0>        0.00000
     42 H9         -3.0781    1.9722    0.0000 HC        1 <0>        0.00000
     43 H10        -3.0781    1.9722    0.0000 HC        1 <0>        0.00000
     44 H11        -2.2653    2.1196    0.0000 HC        1 <0>        0.00000
     45 H12        -2.2653    2.1196    0.0000 HC        1 <0>        0.00000
     46 H13        -0.4025    0.1079    0.0000 HA        1 <0>        0.00000
     47 H14         0.3126   -0.3021    0.0000 HA        1 <0>        0.00000
     48 H15         1.7412   -0.3053    0.0000 HC        1 <0>        0.00000
     49 H16         1.7412   -0.3053    0.0000 HC        1 <0>        0.00000
     50 H17         1.7412   -0.3053    0.0000 HC        1 <0>        0.00000
     51 H18         2.4583    0.9282    0.0000 HA        1 <0>        0.00000
@<TRIPOS>BOND
     1    1    2 2
     2    2    3 1
     3    2    4 1
     4    4    5 ar
     5    4   33 ar
     6    5    6 ar
     7    6    7 ar
     8    7    8 ar
     9    8    9 1
    10    8   33 ar
    11    9   10 ar
    12    9   31 ar
    13   10   11 ar
    14   11   12 1
    15   11   29 ar
    16   12   13 am
    17   13   14 1
    18   13   28 2
    19   14   15 1
    20   14   26 1
    21   14   27 1
    22   15   16 ar
    23   15   25 ar
    24   16   17 ar
    25   17   18 ar
    26   18   19 1
    27   18   24 ar
    28   19   20 1
    29   20   21 1
    30   20   22 1
    31   20   23 1
    32   23   24 1
    33   24   25 ar
    34   26   27 1
    35   29   30 ar
    36   30   31 ar
    37   31   32 1
    38    3   34 1
    39    5   35 1
    40    6   36 1
    41    7   37 1
    42   12   38 1
    43   16   39 1
    44   17   40 1
    45   25   41 1
    46   26   42 1
    47   26   43 1
    48   27   44 1
    49   27   45 1
    50   29   46 1
    51   30   47 1
    52   32   48 1
    53   32   49 1
    54   32   50 1
    55   33   51 1
@<TRIPOS>SUBSTRUCTURE
     1 <0>         1 GROUP 0 A     ****
@<TRIPOS>MOLECULE
MiniDrugBank_37
   31    32     1     0     0
SMALL
NO_CHARGES

@<TRIPOS>ATOM
      1 N1          1.9109   -0.2767    0.0000 N3        1 <0>        0.00000
      2 C1          1.4944   -0.9890    0.0000 CT        1 <0>        0.00000
      3 C2          1.9029   -1.7058    0.0000 CT        1 <0>        0.00000
      4 O1          2.7282   -1.7104    0.0000 OS        1 <0>        0.00000
      5 C3          3.1446   -0.9981    0.0000 CT        1 <0>        0.00000
      6 C4          2.7361   -0.2812    0.0000 CT        1 <0>        0.00000
      7 N2          1.5024    0.4398    0.0000 NB        1 <0>        0.00000
      8 N3          1.7592    1.2238    0.0000 NB        1 <0>        0.00000
      9 O2          1.0900    1.7104    0.0000 OS        1 <0>        0.00000
     10 C5          0.4210    1.2238    0.0000 CW        1 <0>        0.00000
     11 C6          0.6776    0.4398    0.0000 CC        1 <0>        0.00000
     12 N4         -0.2928    1.6395    0.0000 N2        1 <0>        0.00000
     13 C7         -1.0052    1.2272    0.0000 C         1 <0>        0.00000
     14 O3         -1.7175    1.6395    0.0000 OS        1 <0>        0.00000
     15 C8         -2.4299    1.2272    0.0000 CT        1 <0>        0.00000
     16 O4         -1.0052    0.4023    0.0000 O         1 <0>        0.00000
     17 C9         -3.1446    1.6388    0.0000 CT        1 <0>        0.00000
     18 H1          1.4944   -0.9890    0.0000 H1        1 <0>        0.00000
     19 H2          1.4944   -0.9890    0.0000 H1        1 <0>        0.00000
     20 H3          1.9029   -1.7058    0.0000 H1        1 <0>        0.00000
     21 H4          1.9029   -1.7058    0.0000 H1        1 <0>        0.00000
     22 H5          3.1446   -0.9981    0.0000 H1        1 <0>        0.00000
     23 H6          3.1446   -0.9981    0.0000 H1        1 <0>        0.00000
     24 H7          2.7361   -0.2812    0.0000 H1        1 <0>        0.00000
     25 H8          2.7361   -0.2812    0.0000 H1        1 <0>        0.00000
     26 H9          0.6776    0.4398    0.0000 H4        1 <0>        0.00000
     27 H10        -2.4299    1.2272    0.0000 H1        1 <0>        0.00000
     28 H11        -2.4299    1.2272    0.0000 H1        1 <0>        0.00000
     29 H12        -3.1446    1.6388    0.0000 HC        1 <0>        0.00000
     30 H13        -3.1446    1.6388    0.0000 HC        1 <0>        0.00000
     31 H14        -3.1446    1.6388    0.0000 HC        1 <0>        0.00000
@<TRIPOS>BOND
     1    3    4 1
     2    4    5 1
     3    7    8 2
     4    8    9 1
     5    9   10 1
     6   10   11 2
     7    7   11 1
     8    5    6 1
     9   10   12 1
    10    1    6 1
    11   12   13 1
    12   13   14 1
    13    1    7 1
    14   14   15 1
    15    1    2 1
    16   13   16 2
    17    2    3 1
    18   15   17 1
    19    2   18 1
    20    2   19 1
    21    3   20 1
    22    3   21 1
    23    5   22 1
    24    5   23 1
    25    6   24 1
    26    6   25 1
    27   11   26 1
    28   15   27 1
    29   15   28 1
    30   17   29 1
    31   17   30 1
    32   17   31 1
@<TRIPOS>SUBSTRUCTURE
     1 <0>         1 GROUP 0 A     ****
@<TRIPOS>MOLECULE
T2M
   25    24     1     0     0
SMALL
NO_CHARGES

@<TRIPOS>ATOM
      1 C1          1.7345   -0.5402    0.0000 CT        1 <0>        0.00000
      2 N1          1.7345    0.2848    0.0000 N3        1 <0>        0.00000
      3 N2          1.0200    0.6974    0.0000 N         1 <0>        0.00000
      4 C2          0.3054    0.2848    0.0000 C         1 <0>        0.00000
      5 O1          0.3054   -0.5402    0.0000 O         1 <0>        0.00000
      6 O2         -0.4090    0.6974    0.0000 OS        1 <0>        0.00000
      7 C3         -1.1236    0.2848    0.0000 CT        1 <0>        0.00000
      8 C4         -1.8381   -0.1277    0.0000 CT        1 <0>        0.00000
      9 C5         -0.7111   -0.4297    0.0000 CT        1 <0>        0.00000
     10 C6         -1.5361    0.9993    0.0000 CT        1 <0>        0.00000
     11 C7          2.4491    0.6974    0.0000 C2        1 <0>        0.00000
     12 N3          3.1635    1.1099    0.0000 NL        1 <0>        0.00000
     13 H1          1.7345   -0.5402    0.0000 H1        1 <0>        0.00000
     14 H2          1.7345   -0.5402    0.0000 H1        1 <0>        0.00000
     15 H3          1.7345   -0.5402    0.0000 H1        1 <0>        0.00000
     16 H4          1.0200    0.6974    0.0000 H         1 <0>        0.00000
     17 H5         -1.8381   -0.1277    0.0000 HC        1 <0>        0.00000
     18 H6         -1.8381   -0.1277    0.0000 HC        1 <0>        0.00000
     19 H7         -1.8381   -0.1277    0.0000 HC        1 <0>        0.00000
     20 H8         -0.7111   -0.4297    0.0000 HC        1 <0>        0.00000
     21 H9         -0.7111   -0.4297    0.0000 HC        1 <0>        0.00000
     22 H10        -0.7111   -0.4297    0.0000 HC        1 <0>        0.00000
     23 H11        -1.5361    0.9993    0.0000 HC        1 <0>        0.00000
     24 H12        -1.5361    0.9993    0.0000 HC        1 <0>        0.00000
     25 H13        -1.5361    0.9993    0.0000 HC        1 <0>        0.00000
@<TRIPOS>BOND
     1    1    2 1
     2    2    3 1
     3    2   11 1
     4    3    4 am
     5    4    5 2
     6    4    6 1
     7    6    7 1
     8    7    8 1
     9    7    9 1
    10    7   10 1
    11   11   12 3
    12    1   13 1
    13    1   14 1
    14    1   15 1
    15    3   16 1
    16    8   17 1
    17    8   18 1
    18    8   19 1
    19    9   20 1
    20    9   21 1
    21    9   22 1
    22   10   23 1
    23   10   24 1
    24   10   25 1
@<TRIPOS>SUBSTRUCTURE
     1 <0>         1 GROUP 0 A     ****
@<TRIPOS>MOLECULE
AIA
   41    42     1     0     0
SMALL
NO_CHARGES

@<TRIPOS>ATOM
      1 C1          1.5130    0.6759    0.0000 CT        1 <0>        0.00000
      2 C2          1.1005   -0.5937    0.0000 CT        1 <0>        0.00000
      3 C3          0.0610    0.4459    0.0000 C         1 <0>        0.00000
      4 C4          2.1805    0.1910    0.0000 CT        1 <0>        0.00000
      5 C5          1.5130    1.5009    0.0000 C2        1 <0>        0.00000
      6 C6          1.9255   -0.5937    0.0000 CT        1 <0>        0.00000
      7 C7          0.6156   -1.2611    0.0000 CT        1 <0>        0.00000
      8 C8         -0.5521   -0.1061    0.0000 CT        1 <0>        0.00000
      9 N1          0.8456    0.1910    0.0000 N         1 <0>        0.00000
     10 O1         -0.1106    1.2529    0.0000 O         1 <0>        0.00000
     11 C9          1.5130    2.3259    0.0000 C2        1 <0>        0.00000
     12 N2          0.9512   -2.0148    0.0000 N3        1 <0>        0.00000
     13 C10        -1.3368    0.1488    0.0000 CT        1 <0>        0.00000
     14 N3         -0.3806   -0.9131    0.0000 N3        1 <0>        0.00000
     15 C11        -2.0042   -0.3361    0.0000 CT        1 <0>        0.00000
     16 C12        -1.5917    0.9334    0.0000 CT        1 <0>        0.00000
     17 C13        -2.6716    0.1488    0.0000 CT        1 <0>        0.00000
     18 C14        -2.4167    0.9334    0.0000 CT        1 <0>        0.00000
     19 H1          2.0333    0.9410    0.0000 H1        1 <0>        0.00000
     20 H2          1.3656   -1.1139    0.0000 H1        1 <0>        0.00000
     21 H3         -0.6735    0.4650    0.0000 H1        1 <0>        0.00000
     22 H4          2.1805    0.1910    0.0000 HC        1 <0>        0.00000
     23 H5          2.1805    0.1910    0.0000 HC        1 <0>        0.00000
     24 H6          1.9255   -0.5937    0.0000 HC        1 <0>        0.00000
     25 H7          1.9255   -0.5937    0.0000 HC        1 <0>        0.00000
     26 H8          0.6156   -1.2611    0.0000 H1        1 <0>        0.00000
     27 H9          0.6156   -1.2611    0.0000 H1        1 <0>        0.00000
     28 H10         1.5130    2.3259    0.0000 HC        1 <0>        0.00000
     29 H11         0.9512   -2.0148    0.0000 H         1 <0>        0.00000
     30 H12         0.9512   -2.0148    0.0000 H         1 <0>        0.00000
     31 H13        -1.3368    0.1488    0.0000 HC        1 <0>        0.00000
     32 H14        -0.3806   -0.9131    0.0000 H         1 <0>        0.00000
     33 H15        -0.3806   -0.9131    0.0000 H         1 <0>        0.00000
     34 H16        -2.0042   -0.3361    0.0000 HC        1 <0>        0.00000
     35 H17        -2.0042   -0.3361    0.0000 HC        1 <0>        0.00000
     36 H18        -1.5917    0.9334    0.0000 HC        1 <0>        0.00000
     37 H19        -1.5917    0.9334    0.0000 HC        1 <0>        0.00000
     38 H20        -2.6716    0.1488    0.0000 HC        1 <0>        0.00000
     39 H21        -2.6716    0.1488    0.0000 HC        1 <0>        0.00000
     40 H22        -2.4167    0.9334    0.0000 HC        1 <0>        0.00000
     41 H23        -2.4167    0.9334    0.0000 HC        1 <0>        0.00000
@<TRIPOS>BOND
     1    1    4 1
     2    1    5 1
     3    1    9 1
     4    1   19 1
     5    2    6 1
     6    2    7 1
     7    2    9 1
     8    2   20 1
     9    3    8 1
    10    3    9 am
    11    3   10 2
    12    4    6 1
    13    5   11 3
    14    7   12 1
    15    8   13 1
    16    8   14 1
    17    8   21 1
    18   13   15 1
    19   13   16 1
    20   15   17 1
    21   16   18 1
    22   17   18 1
    23    4   22 1
    24    4   23 1
    25    6   24 1
    26    6   25 1
    27    7   26 1
    28    7   27 1
    29   11   28 1
    30   12   29 1
    31   12   30 1
    32   13   31 1
    33   14   32 1
    34   14   33 1
    35   15   34 1
    36   15   35 1
    37   16   36 1
    38   16   37 1
    39   17   38 1
    40   17   39 1
    41   18   40 1
    42   18   41 1
@<TRIPOS>SUBSTRUCTURE
     1 <0>         1 GROUP 0 A     ****
@<TRIPOS>MOLECULE
MiniDrugBank_40
   18    17     1     0     0
SMALL
NO_CHARGES

@<TRIPOS>ATOM
      1 C1          6.2861   -7.7655    0.0000 CT        1 <0>        0.00000
      2 C2          6.9920   -7.3579    0.0000 CT        1 <0>        0.00000
      3 C3          7.6978   -7.7655    0.0000 CM        1 <0>        0.00000
      4 C4          8.4037   -7.3579    0.0000 CM        1 <0>        0.00000
      5 Cl1         9.1202   -7.7717    0.0000 CL        1 <0>        0.00000
      6 H1          8.4035   -6.5294    0.0000 H4        1 <0>        0.00000
      7 C5          7.3967   -6.6390    0.0000 C2        1 <0>        0.00000
      8 O1          6.5693   -6.6390    0.0000 OH        1 <0>        0.00000
      9 C6          5.5724   -7.3469    0.0000 CT        1 <0>        0.00000
     10 C7          7.8054   -5.9213    0.0000 C2        1 <0>        0.00000
     11 H2          6.2861   -7.7655    0.0000 HC        1 <0>        0.00000
     12 H3          6.2861   -7.7655    0.0000 HC        1 <0>        0.00000
     13 H4          7.6978   -7.7655    0.0000 HA        1 <0>        0.00000
     14 H5          6.5693   -6.6390    0.0000 HO        1 <0>        0.00000
     15 H6          5.5724   -7.3469    0.0000 HC        1 <0>        0.00000
     16 H7          5.5724   -7.3469    0.0000 HC        1 <0>        0.00000
     17 H8          5.5724   -7.3469    0.0000 HC        1 <0>        0.00000
     18 H9          7.8054   -5.9213    0.0000 HC        1 <0>        0.00000
@<TRIPOS>BOND
     1    1    2 1
     2    2    3 1
     3    3    4 2
     4    4    5 1
     5    4    6 1
     6    2    7 1
     7    2    8 1
     8    1    9 1
     9    7   10 3
    10    1   11 1
    11    1   12 1
    12    3   13 1
    13    8   14 1
    14    9   15 1
    15    9   16 1
    16    9   17 1
    17   10   18 1
@<TRIPOS>SUBSTRUCTURE
     1 <0>         1 GROUP 0 A     ****
@<TRIPOS>MOLECULE
C28
   58    60     1     0     0
SMALL
NO_CHARGES

@<TRIPOS>ATOM
      1 C1          3.6552   -2.2338    0.0000 CA        1 <0>        0.00000
      2 C2          2.9408   -0.9963    0.0000 CA        1 <0>        0.00000
      3 C3          2.2263   -1.4088    0.0000 CA        1 <0>        0.00000
      4 C4          2.2263   -2.2338    0.0000 CA        1 <0>        0.00000
      5 C5          2.9408   -2.6463    0.0000 CA        1 <0>        0.00000
      6 C6          3.6552   -1.4088    0.0000 CA        1 <0>        0.00000
      7 C7          1.5118   -0.9963    0.0000 CT        1 <0>        0.00000
      8 F1          4.3697   -2.6463    0.0000 F         1 <0>        0.00000
      9 N1          0.7973   -1.4088    0.0000 N3        1 <0>        0.00000
     10 C8          1.5118   -0.1713    0.0000 CT        1 <0>        0.00000
     11 C9          0.0829   -0.9963    0.0000 CT        1 <0>        0.00000
     12 C10         0.0829   -0.1713    0.0000 C         1 <0>        0.00000
     13 C11        -0.6316   -1.4088    0.0000 CT        1 <0>        0.00000
     14 S1         -1.3461   -0.9963    0.0000 SO        1 <0>        0.00000
     15 N2         -2.0605   -0.5838    0.0000 N3        1 <0>        0.00000
     16 N3         -0.6316    0.2412    0.0000 N         1 <0>        0.00000
     17 O1          0.7973    0.2412    0.0000 O         1 <0>        0.00000
     18 C12        -0.6316    1.0662    0.0000 CJ        1 <0>        0.00000
     19 C13        -0.3494    1.8414    0.0000 CJ        1 <0>        0.00000
     20 C14         0.1809    1.2094    0.0000 CJ        1 <0>        0.00000
     21 O2         -0.9336   -0.2819    0.0000 O2        1 <0>        0.00000
     22 F2          1.5118    0.6537    0.0000 F         1 <0>        0.00000
     23 F3          2.3368   -0.1713    0.0000 F         1 <0>        0.00000
     24 F4          0.6868   -0.1713    0.0000 F         1 <0>        0.00000
     25 O3         -1.7586   -1.7108    0.0000 O2        1 <0>        0.00000
     26 C15        -2.7750   -0.9963    0.0000 CT        1 <0>        0.00000
     27 C16        -3.4895   -0.5838    0.0000 CT        1 <0>        0.00000
     28 O4         -3.4895    0.2412    0.0000 OS        1 <0>        0.00000
     29 C17        -2.7750    0.6537    0.0000 CT        1 <0>        0.00000
     30 C18        -2.0605    0.2412    0.0000 CT        1 <0>        0.00000
     31 N4         -1.7262    1.9847    0.0000 N3        1 <0>        0.00000
     32 C19        -1.4441    1.2094    0.0000 CT        1 <0>        0.00000
     33 H1          1.5118   -1.5803    0.0000 H1        1 <0>        0.00000
     34 H2          0.5886   -0.7044    0.0000 H1        1 <0>        0.00000
     35 H3          2.9408   -0.9963    0.0000 HA        1 <0>        0.00000
     36 H4          2.2263   -2.2338    0.0000 HA        1 <0>        0.00000
     37 H5          2.9408   -2.6463    0.0000 HA        1 <0>        0.00000
     38 H6          3.6552   -1.4088    0.0000 HA        1 <0>        0.00000
     39 H7          0.7973   -1.4088    0.0000 H         1 <0>        0.00000
     40 H8         -0.6316   -1.4088    0.0000 H1        1 <0>        0.00000
     41 H9         -0.6316   -1.4088    0.0000 H1        1 <0>        0.00000
     42 H10        -0.6316    0.2412    0.0000 H         1 <0>        0.00000
     43 H11        -0.3494    1.8414    0.0000 HC        1 <0>        0.00000
     44 H12        -0.3494    1.8414    0.0000 HC        1 <0>        0.00000
     45 H13         0.1809    1.2094    0.0000 HC        1 <0>        0.00000
     46 H14         0.1809    1.2094    0.0000 HC        1 <0>        0.00000
     47 H15        -2.7750   -0.9963    0.0000 H1        1 <0>        0.00000
     48 H16        -2.7750   -0.9963    0.0000 H1        1 <0>        0.00000
     49 H17        -3.4895   -0.5838    0.0000 H1        1 <0>        0.00000
     50 H18        -3.4895   -0.5838    0.0000 H1        1 <0>        0.00000
     51 H19        -2.7750    0.6537    0.0000 H1        1 <0>        0.00000
     52 H20        -2.7750    0.6537    0.0000 H1        1 <0>        0.00000
     53 H21        -2.0605    0.2412    0.0000 H1        1 <0>        0.00000
     54 H22        -2.0605    0.2412    0.0000 H1        1 <0>        0.00000
     55 H23        -1.7262    1.9847    0.0000 H         1 <0>        0.00000
     56 H24        -1.7262    1.9847    0.0000 H         1 <0>        0.00000
     57 H25        -1.4441    1.2094    0.0000 H1        1 <0>        0.00000
     58 H26        -1.4441    1.2094    0.0000 H1        1 <0>        0.00000
@<TRIPOS>BOND
     1    1    5 ar
     2    1    6 ar
     3    1    8 1
     4    2    3 ar
     5    2    6 ar
     6    3    4 ar
     7    3    7 1
     8    4    5 ar
     9    7    9 1
    10    7   10 1
    11    7   33 1
    12    9   11 1
    13   10   22 1
    14   10   23 1
    15   10   24 1
    16   11   12 1
    17   11   13 1
    18   11   34 1
    19   12   16 am
    20   12   17 2
    21   13   14 1
    22   14   15 1
    23   14   21 2
    24   14   25 2
    25   15   26 1
    26   15   30 1
    27   16   18 1
    28   18   19 1
    29   18   20 1
    30   18   32 1
    31   19   20 1
    32   26   27 1
    33   27   28 1
    34   28   29 1
    35   29   30 1
    36   31   32 1
    37    2   35 1
    38    4   36 1
    39    5   37 1
    40    6   38 1
    41    9   39 1
    42   13   40 1
    43   13   41 1
    44   16   42 1
    45   19   43 1
    46   19   44 1
    47   20   45 1
    48   20   46 1
    49   26   47 1
    50   26   48 1
    51   27   49 1
    52   27   50 1
    53   29   51 1
    54   29   52 1
    55   30   53 1
    56   30   54 1
    57   31   55 1
    58   31   56 1
    59   32   57 1
    60   32   58 1
@<TRIPOS>SUBSTRUCTURE
     1 <0>         1 GROUP 0 A     ****
@<TRIPOS>MOLECULE
315
   59    62     1     0     0
SMALL
NO_CHARGES

@<TRIPOS>ATOM
      1 C1         -0.0767   -0.9562    0.0000 CT        1 <0>        0.00000
      2 C2          0.6378   -1.3687    0.0000 CT        1 <0>        0.00000
      3 C3          0.6378   -2.1937    0.0000 C         1 <0>        0.00000
      4 N1          1.3523   -2.6062    0.0000 N         1 <0>        0.00000
      5 O1         -0.0767   -2.6062    0.0000 O         1 <0>        0.00000
      6 N2          1.3523   -0.9562    0.0000 N3        1 <0>        0.00000
      7 C4         -0.7911   -1.3687    0.0000 CT        1 <0>        0.00000
      8 C5          1.4385   -3.4267    0.0000 CT        1 <0>        0.00000
      9 C6          2.2455   -3.5982    0.0000 CT        1 <0>        0.00000
     10 C7          2.6580   -2.8838    0.0000 CT        1 <0>        0.00000
     11 C8          2.1060   -2.2707    0.0000 CT        1 <0>        0.00000
     12 F1          2.5811   -4.3519    0.0000 F         1 <0>        0.00000
     13 C9         -1.5056   -0.9562    0.0000 CJ        1 <0>        0.00000
     14 C10        -1.9181   -0.2418    0.0000 CJ        1 <0>        0.00000
     15 C11        -2.3306   -0.9562    0.0000 CJ        1 <0>        0.00000
     16 C12        -0.0767   -0.1312    0.0000 CT        1 <0>        0.00000
     17 N3         -0.7441    0.3537    0.0000 N3        1 <0>        0.00000
     18 C13        -0.4892    1.1383    0.0000 CT        1 <0>        0.00000
     19 N4          0.3358    1.1383    0.0000 N3        1 <0>        0.00000
     20 O2          0.5908    0.3537    0.0000 OS        1 <0>        0.00000
     21 C14        -0.9741    1.8058    0.0000 CA        1 <0>        0.00000
     22 C15        -1.7946    1.7195    0.0000 CA        1 <0>        0.00000
     23 C16        -2.2795    2.3870    0.0000 CA        1 <0>        0.00000
     24 C17        -1.9439    3.1406    0.0000 CA        1 <0>        0.00000
     25 C18        -1.1234    3.2269    0.0000 CA        1 <0>        0.00000
     26 C19        -0.6385    2.5594    0.0000 CA        1 <0>        0.00000
     27 F2          0.1820    2.6457    0.0000 F         1 <0>        0.00000
     28 S1         -2.4288    3.8081    0.0000 SO        1 <0>        0.00000
     29 O3         -2.9138    4.4755    0.0000 O2        1 <0>        0.00000
     30 O4         -1.7614    4.2930    0.0000 O2        1 <0>        0.00000
     31 C20        -3.0963    3.3232    0.0000 CT        1 <0>        0.00000
     32 H1          0.4290   -0.6643    0.0000 HC        1 <0>        0.00000
     33 H2          0.1321   -1.6607    0.0000 H1        1 <0>        0.00000
     34 H3          1.8780   -4.0520    0.0000 H1        1 <0>        0.00000
     35 H4         -0.5969   -0.3963    0.0000 H2        1 <0>        0.00000
     36 H5         -1.0659    1.0470    0.0000 H2        1 <0>        0.00000
     37 H6          1.3523   -0.9562    0.0000 H         1 <0>        0.00000
     38 H7          1.3523   -0.9562    0.0000 H         1 <0>        0.00000
     39 H8         -0.7911   -1.3687    0.0000 HC        1 <0>        0.00000
     40 H9         -0.7911   -1.3687    0.0000 HC        1 <0>        0.00000
     41 H10         1.4385   -3.4267    0.0000 H1        1 <0>        0.00000
     42 H11         1.4385   -3.4267    0.0000 H1        1 <0>        0.00000
     43 H12         2.6580   -2.8838    0.0000 HC        1 <0>        0.00000
     44 H13         2.6580   -2.8838    0.0000 HC        1 <0>        0.00000
     45 H14         2.1060   -2.2707    0.0000 H1        1 <0>        0.00000
     46 H15         2.1060   -2.2707    0.0000 H1        1 <0>        0.00000
     47 H16        -1.5056   -0.9562    0.0000 HC        1 <0>        0.00000
     48 H17        -1.9181   -0.2418    0.0000 HC        1 <0>        0.00000
     49 H18        -1.9181   -0.2418    0.0000 HC        1 <0>        0.00000
     50 H19        -2.3306   -0.9562    0.0000 HC        1 <0>        0.00000
     51 H20        -2.3306   -0.9562    0.0000 HC        1 <0>        0.00000
     52 H21        -0.7441    0.3537    0.0000 H         1 <0>        0.00000
     53 H22         0.3358    1.1383    0.0000 H         1 <0>        0.00000
     54 H23        -1.7946    1.7195    0.0000 HA        1 <0>        0.00000
     55 H24        -2.2795    2.3870    0.0000 HA        1 <0>        0.00000
     56 H25        -1.1234    3.2269    0.0000 HA        1 <0>        0.00000
     57 H26        -3.0963    3.3232    0.0000 H1        1 <0>        0.00000
     58 H27        -3.0963    3.3232    0.0000 H1        1 <0>        0.00000
     59 H28        -3.0963    3.3232    0.0000 H1        1 <0>        0.00000
@<TRIPOS>BOND
     1    1    2 1
     2    1   16 1
     3    1   32 1
     4    2    3 1
     5    2   33 1
     6    3    4 am
     7    4   11 1
     8    4    8 1
     9    3    5 2
    10    2    6 1
    11    1    7 1
    12    8    9 1
    13    9   12 1
    14    9   34 1
    15    9   10 1
    16   10   11 1
    17    7   13 1
    18   13   14 1
    19   13   15 1
    20   14   15 1
    21   16   17 1
    22   16   20 1
    23   16   35 1
    24   17   18 1
    25   18   19 1
    26   18   21 1
    27   18   36 1
    28   19   20 1
    29   21   22 ar
    30   21   26 ar
    31   22   23 ar
    32   23   24 ar
    33   24   28 1
    34   24   25 ar
    35   25   26 ar
    36   26   27 1
    37   28   30 2
    38   28   29 2
    39   28   31 1
    40    6   37 1
    41    6   38 1
    42    7   39 1
    43    7   40 1
    44    8   41 1
    45    8   42 1
    46   10   43 1
    47   10   44 1
    48   11   45 1
    49   11   46 1
    50   13   47 1
    51   14   48 1
    52   14   49 1
    53   15   50 1
    54   15   51 1
    55   17   52 1
    56   19   53 1
    57   22   54 1
    58   23   55 1
    59   25   56 1
    60   31   57 1
    61   31   58 1
    62   31   59 1
@<TRIPOS>SUBSTRUCTURE
     1 <0>         1 GROUP 0 A     ****
@<TRIPOS>MOLECULE
616
   60    61     1     0     0
SMALL
NO_CHARGES

@<TRIPOS>ATOM
      1 O1          0.6548    2.2429    0.0000 O         1 <0>        0.00000
      2 C1          0.6548    1.4179    0.0000 C         1 <0>        0.00000
      3 C2          1.3693    1.0054    0.0000 CT        1 <0>        0.00000
      4 C3          2.0838    1.4179    0.0000 CT        1 <0>        0.00000
      5 C4          2.0838    2.2429    0.0000 CT        1 <0>        0.00000
      6 C5          2.7982    1.0054    0.0000 CT        1 <0>        0.00000
      7 C6          1.3693    0.1804    0.0000 CT        1 <0>        0.00000
      8 C7          2.0367   -0.3045    0.0000 CT        1 <0>        0.00000
      9 N1          2.8214   -0.0496    0.0000 N3        1 <0>        0.00000
     10 S1          3.4344   -0.6016    0.0000 SO        1 <0>        0.00000
     11 O2          4.0475   -1.1537    0.0000 O2        1 <0>        0.00000
     12 O3          3.9865    0.0115    0.0000 O2        1 <0>        0.00000
     13 C8          2.8824   -1.2147    0.0000 CT        1 <0>        0.00000
     14 C9          1.7818   -1.0892    0.0000 CT        1 <0>        0.00000
     15 C10         0.9568   -1.0892    0.0000 CT        1 <0>        0.00000
     16 N2          0.7019   -0.3045    0.0000 N         1 <0>        0.00000
     17 C11        -0.0828   -0.0496    0.0000 C         1 <0>        0.00000
     18 O4         -0.2543    0.7574    0.0000 O         1 <0>        0.00000
     19 C12        -0.6959   -0.6016    0.0000 CM        1 <0>        0.00000
     20 C13        -1.4805   -0.3467    0.0000 CM        1 <0>        0.00000
     21 C14        -2.0936   -0.8987    0.0000 CT        1 <0>        0.00000
     22 N3         -2.8782   -0.6438    0.0000 N3        1 <0>        0.00000
     23 C15        -3.4913   -1.1958    0.0000 CT        1 <0>        0.00000
     24 C16        -4.2759   -0.9409    0.0000 CT        1 <0>        0.00000
     25 C17        -4.4474   -0.1339    0.0000 CT        1 <0>        0.00000
     26 C18        -3.8344    0.4181    0.0000 CT        1 <0>        0.00000
     27 C19        -3.0497    0.1632    0.0000 CT        1 <0>        0.00000
     28 H1          1.1696    1.5541    0.0000 HC        1 <0>        0.00000
     29 H2          1.8896    0.4455    0.0000 H1        1 <0>        0.00000
     30 H3          2.1281    0.2722    0.0000 H1        1 <0>        0.00000
     31 H4          0.6548    1.4179    0.0000 H4        1 <0>        0.00000
     32 H5          2.0838    1.4179    0.0000 HC        1 <0>        0.00000
     33 H6          2.0838    2.2429    0.0000 HC        1 <0>        0.00000
     34 H7          2.0838    2.2429    0.0000 HC        1 <0>        0.00000
     35 H8          2.0838    2.2429    0.0000 HC        1 <0>        0.00000
     36 H9          2.7982    1.0054    0.0000 HC        1 <0>        0.00000
     37 H10         2.7982    1.0054    0.0000 HC        1 <0>        0.00000
     38 H11         2.7982    1.0054    0.0000 HC        1 <0>        0.00000
     39 H12         2.8214   -0.0496    0.0000 H         1 <0>        0.00000
     40 H13         2.8824   -1.2147    0.0000 H1        1 <0>        0.00000
     41 H14         2.8824   -1.2147    0.0000 H1        1 <0>        0.00000
     42 H15         2.8824   -1.2147    0.0000 H1        1 <0>        0.00000
     43 H16         1.7818   -1.0892    0.0000 HC        1 <0>        0.00000
     44 H17         1.7818   -1.0892    0.0000 HC        1 <0>        0.00000
     45 H18         0.9568   -1.0892    0.0000 H1        1 <0>        0.00000
     46 H19         0.9568   -1.0892    0.0000 H1        1 <0>        0.00000
     47 H20        -0.6959   -0.6016    0.0000 HA        1 <0>        0.00000
     48 H21        -1.4805   -0.3467    0.0000 HA        1 <0>        0.00000
     49 H22        -2.0936   -0.8987    0.0000 H1        1 <0>        0.00000
     50 H23        -2.0936   -0.8987    0.0000 H1        1 <0>        0.00000
     51 H24        -3.4913   -1.1958    0.0000 H1        1 <0>        0.00000
     52 H25        -3.4913   -1.1958    0.0000 H1        1 <0>        0.00000
     53 H26        -4.2759   -0.9409    0.0000 HC        1 <0>        0.00000
     54 H27        -4.2759   -0.9409    0.0000 HC        1 <0>        0.00000
     55 H28        -4.4474   -0.1339    0.0000 HC        1 <0>        0.00000
     56 H29        -4.4474   -0.1339    0.0000 HC        1 <0>        0.00000
     57 H30        -3.8344    0.4181    0.0000 HC        1 <0>        0.00000
     58 H31        -3.8344    0.4181    0.0000 HC        1 <0>        0.00000
     59 H32        -3.0497    0.1632    0.0000 H1        1 <0>        0.00000
     60 H33        -3.0497    0.1632    0.0000 H1        1 <0>        0.00000
@<TRIPOS>BOND
     1    1    2 2
     2    2    3 1
     3    3    4 1
     4    3    7 1
     5    3   28 1
     6    4    5 1
     7    4    6 1
     8    7    8 1
     9    7   16 1
    10    7   29 1
    11    8    9 1
    12    8   14 1
    13    8   30 1
    14    9   10 1
    15   10   11 2
    16   10   12 2
    17   10   13 1
    18   14   15 1
    19   15   16 1
    20   16   17 am
    21   17   18 2
    22   17   19 1
    23   19   20 2
    24   20   21 1
    25   21   22 1
    26   22   23 1
    27   22   27 1
    28   23   24 1
    29   24   25 1
    30   25   26 1
    31   26   27 1
    32    2   31 1
    33    4   32 1
    34    5   33 1
    35    5   34 1
    36    5   35 1
    37    6   36 1
    38    6   37 1
    39    6   38 1
    40    9   39 1
    41   13   40 1
    42   13   41 1
    43   13   42 1
    44   14   43 1
    45   14   44 1
    46   15   45 1
    47   15   46 1
    48   19   47 1
    49   20   48 1
    50   21   49 1
    51   21   50 1
    52   23   51 1
    53   23   52 1
    54   24   53 1
    55   24   54 1
    56   25   55 1
    57   25   56 1
    58   26   57 1
    59   26   58 1
    60   27   59 1
    61   27   60 1
@<TRIPOS>SUBSTRUCTURE
     1 <0>         1 GROUP 0 A     ****
@<TRIPOS>MOLECULE
PU1
   51    53     1     0     0
SMALL
NO_CHARGES

@<TRIPOS>ATOM
      1 Cl1         0.3038   -2.2271    0.0000 CL        1 <0>        0.00000
      2 C1         -0.3093   -1.6751    0.0000 CA        1 <0>        0.00000
      3 C2         -1.0939   -1.9300    0.0000 CA        1 <0>        0.00000
      4 O1         -1.2654   -2.7370    0.0000 OS        1 <0>        0.00000
      5 C3         -2.0500   -2.9919    0.0000 CT        1 <0>        0.00000
      6 C4         -1.7070   -1.3780    0.0000 CA        1 <0>        0.00000
      7 O2         -2.4916   -1.6329    0.0000 OS        1 <0>        0.00000
      8 C5         -3.1047   -1.0809    0.0000 CT        1 <0>        0.00000
      9 C6         -1.5354   -0.5710    0.0000 CA        1 <0>        0.00000
     10 O3         -2.1485   -0.0190    0.0000 OS        1 <0>        0.00000
     11 C7         -1.9770    0.7880    0.0000 CT        1 <0>        0.00000
     12 C8         -0.7508   -0.3161    0.0000 CA        1 <0>        0.00000
     13 C9         -0.1377   -0.8681    0.0000 CA        1 <0>        0.00000
     14 C10         0.6469   -0.6132    0.0000 CT        1 <0>        0.00000
     15 C11         0.8184    0.1938    0.0000 CR        1 <0>        0.00000
     16 N1          0.2664    0.8069    0.0000 NB        1 <0>        0.00000
     17 C12         0.6789    1.5214    0.0000 CB        1 <0>        0.00000
     18 C13         0.4239    2.3060    0.0000 CA        1 <0>        0.00000
     19 N2         -0.3830    2.4775    0.0000 N2        1 <0>        0.00000
     20 C14         1.4859    1.3498    0.0000 CB        1 <0>        0.00000
     21 N3          2.0379    1.9629    0.0000 NC        1 <0>        0.00000
     22 C15         1.7830    2.7476    0.0000 CA        1 <0>        0.00000
     23 N4          0.9760    2.9191    0.0000 NC        1 <0>        0.00000
     24 N5          1.5721    0.5294    0.0000 N*        1 <0>        0.00000
     25 C16         2.2866    0.1169    0.0000 CT        1 <0>        0.00000
     26 C17         3.0010    0.5294    0.0000 CT        1 <0>        0.00000
     27 C18         3.7155    0.1169    0.0000 CT        1 <0>        0.00000
     28 C19         4.4300    0.5294    0.0000 C2        1 <0>        0.00000
     29 C20         5.1444    0.9419    0.0000 C2        1 <0>        0.00000
     30 F1          2.3350    3.3607    0.0000 F         1 <0>        0.00000
     31 H1         -2.0500   -2.9919    0.0000 H1        1 <0>        0.00000
     32 H2         -2.0500   -2.9919    0.0000 H1        1 <0>        0.00000
     33 H3         -2.0500   -2.9919    0.0000 H1        1 <0>        0.00000
     34 H4         -3.1047   -1.0809    0.0000 H1        1 <0>        0.00000
     35 H5         -3.1047   -1.0809    0.0000 H1        1 <0>        0.00000
     36 H6         -3.1047   -1.0809    0.0000 H1        1 <0>        0.00000
     37 H7         -1.9770    0.7880    0.0000 H1        1 <0>        0.00000
     38 H8         -1.9770    0.7880    0.0000 H1        1 <0>        0.00000
     39 H9         -1.9770    0.7880    0.0000 H1        1 <0>        0.00000
     40 H10        -0.7508   -0.3161    0.0000 HA        1 <0>        0.00000
     41 H11         0.6469   -0.6132    0.0000 HC        1 <0>        0.00000
     42 H12         0.6469   -0.6132    0.0000 HC        1 <0>        0.00000
     43 H13        -0.3830    2.4775    0.0000 H         1 <0>        0.00000
     44 H14        -0.3830    2.4775    0.0000 H         1 <0>        0.00000
     45 H15         2.2866    0.1169    0.0000 H1        1 <0>        0.00000
     46 H16         2.2866    0.1169    0.0000 H1        1 <0>        0.00000
     47 H17         3.0010    0.5294    0.0000 HC        1 <0>        0.00000
     48 H18         3.0010    0.5294    0.0000 HC        1 <0>        0.00000
     49 H19         3.7155    0.1169    0.0000 HC        1 <0>        0.00000
     50 H20         3.7155    0.1169    0.0000 HC        1 <0>        0.00000
     51 H21         5.1444    0.9419    0.0000 HC        1 <0>        0.00000
@<TRIPOS>BOND
     1    1    2 1
     2    2    3 ar
     3    2   13 ar
     4    3    4 1
     5    3    6 ar
     6    4    5 1
     7    6    7 1
     8    6    9 ar
     9    7    8 1
    10    9   10 1
    11    9   12 ar
    12   10   11 1
    13   12   13 ar
    14   13   14 1
    15   14   15 1
    16   15   16 2
    17   15   24 1
    18   16   17 1
    19   17   18 ar
    20   17   20 ar
    21   18   19 1
    22   18   23 ar
    23   20   21 ar
    24   20   24 1
    25   21   22 ar
    26   22   23 ar
    27   22   30 1
    28   24   25 1
    29   25   26 1
    30   26   27 1
    31   27   28 1
    32   28   29 3
    33    5   31 1
    34    5   32 1
    35    5   33 1
    36    8   34 1
    37    8   35 1
    38    8   36 1
    39   11   37 1
    40   11   38 1
    41   11   39 1
    42   12   40 1
    43   14   41 1
    44   14   42 1
    45   19   43 1
    46   19   44 1
    47   25   45 1
    48   25   46 1
    49   26   47 1
    50   26   48 1
    51   27   49 1
    52   27   50 1
    53   29   51 1
@<TRIPOS>SUBSTRUCTURE
     1 <0>         1 GROUP 0 A     ****
@<TRIPOS>MOLECULE
744
   28    29     1     0     0
SMALL
NO_CHARGES

@<TRIPOS>ATOM
      1 S1          3.8597    1.1874    0.0000 S         1 <0>        0.00000
      2 O1          5.1662   -0.9055    0.0000 OH        1 <0>        0.00000
      3 O2          6.8162    0.5235    0.0000 O         1 <0>        0.00000
      4 N1          5.5787   -0.1910    0.0000 N         1 <0>        0.00000
      5 N2          6.8162   -0.9055    0.0000 N         1 <0>        0.00000
      6 C1          5.1662    0.5235    0.0000 CT        1 <0>        0.00000
      7 C2          4.3412    0.5235    0.0000 CW        1 <0>        0.00000
      8 C3          3.0791    0.1110    0.0000 CB        1 <0>        0.00000
      9 C4          3.8597   -0.1404    0.0000 CC        1 <0>        0.00000
     10 C5          3.0791    0.9360    0.0000 CB        1 <0>        0.00000
     11 C6          5.5787    1.2379    0.0000 CT        1 <0>        0.00000
     12 C7          2.3645   -0.3015    0.0000 CA        1 <0>        0.00000
     13 C8          2.3645    1.3485    0.0000 CA        1 <0>        0.00000
     14 C9          1.6500    0.1110    0.0000 CA        1 <0>        0.00000
     15 C10         1.6500    0.9360    0.0000 CA        1 <0>        0.00000
     16 C11         6.4037   -0.1910    0.0000 C         1 <0>        0.00000
     17 H1          5.1662   -0.9055    0.0000 HO        1 <0>        0.00000
     18 H2          6.8162   -0.9055    0.0000 H         1 <0>        0.00000
     19 H3          6.8162   -0.9055    0.0000 H         1 <0>        0.00000
     20 H4          5.1662    0.5235    0.0000 H1        1 <0>        0.00000
     21 H5          3.8597   -0.1404    0.0000 HA        1 <0>        0.00000
     22 H6          5.5787    1.2379    0.0000 HC        1 <0>        0.00000
     23 H7          5.5787    1.2379    0.0000 HC        1 <0>        0.00000
     24 H8          5.5787    1.2379    0.0000 HC        1 <0>        0.00000
     25 H9          2.3645   -0.3015    0.0000 HA        1 <0>        0.00000
     26 H10         2.3645    1.3485    0.0000 HA        1 <0>        0.00000
     27 H11         1.6500    0.1110    0.0000 HA        1 <0>        0.00000
     28 H12         1.6500    0.9360    0.0000 HA        1 <0>        0.00000
@<TRIPOS>BOND
     1    1    7 1
     2    1   10 1
     3    2    4 1
     4    3   16 2
     5    4    6 1
     6    4   16 am
     7    5   16 am
     8    6    7 1
     9    6   11 1
    10    7    9 2
    11    8    9 1
    12    8   10 ar
    13    8   12 ar
    14   10   13 ar
    15   12   14 ar
    16   13   15 ar
    17   14   15 ar
    18    2   17 1
    19    5   18 1
    20    5   19 1
    21    6   20 1
    22    9   21 1
    23   11   22 1
    24   11   23 1
    25   11   24 1
    26   12   25 1
    27   13   26 1
    28   14   27 1
    29   15   28 1
@<TRIPOS>SUBSTRUCTURE
     1 <0>         1 GROUP 0 A     ****
@<TRIPOS>MOLECULE
MiniDrugBank_46
   56    59     1     0     0
SMALL
NO_CHARGES

@<TRIPOS>ATOM
      1 C1         -1.4289   -1.6500    0.0000 CT        1 <0>        0.00000
      2 C2         -0.7145   -1.2375    0.0000 CA        1 <0>        0.00000
      3 C3          0.0000   -1.6500    0.0000 CA        1 <0>        0.00000
      4 C4          0.7145   -1.2375    0.0000 CA        1 <0>        0.00000
      5 C5          0.7145   -0.4125    0.0000 CA        1 <0>        0.00000
      6 C6          0.0000    0.0000    0.0000 CA        1 <0>        0.00000
      7 C7         -0.7145   -0.4125    0.0000 CA        1 <0>        0.00000
      8 C8         -1.4289    0.0000    0.0000 CJ        1 <0>        0.00000
      9 C9         -1.9592    0.6320    0.0000 CJ        1 <0>        0.00000
     10 C10        -1.1468    0.7752    0.0000 CJ        1 <0>        0.00000
     11 C11        -1.9592   -0.6320    0.0000 CA        1 <0>        0.00000
     12 C12        -1.6771   -1.4072    0.0000 CA        1 <0>        0.00000
     13 C13        -2.2074   -2.0392    0.0000 CA        1 <0>        0.00000
     14 C14        -3.0198   -1.8960    0.0000 CA        1 <0>        0.00000
     15 C15        -3.3020   -1.1207    0.0000 CA        1 <0>        0.00000
     16 N1         -2.7717   -0.4887    0.0000 NC        1 <0>        0.00000
     17 C16        -3.5501   -2.5279    0.0000 C         1 <0>        0.00000
     18 O1         -4.3626   -2.3847    0.0000 OH        1 <0>        0.00000
     19 O2         -3.2680   -3.3032    0.0000 O         1 <0>        0.00000
     20 C17         1.4289    0.0000    0.0000 CT        1 <0>        0.00000
     21 C18         0.8986    0.6320    0.0000 CT        1 <0>        0.00000
     22 C19         1.9592    0.6320    0.0000 CT        1 <0>        0.00000
     23 C20         2.1434   -0.4125    0.0000 CT        1 <0>        0.00000
     24 C21         2.1434   -1.2375    0.0000 CT        1 <0>        0.00000
     25 C22         1.4289   -1.6500    0.0000 CT        1 <0>        0.00000
     26 C23         1.8163   -2.3784    0.0000 CT        1 <0>        0.00000
     27 C24         1.0416   -2.3784    0.0000 CT        1 <0>        0.00000
     28 H1         -1.4289   -1.6500    0.0000 HC        1 <0>        0.00000
     29 H2         -1.4289   -1.6500    0.0000 HC        1 <0>        0.00000
     30 H3         -1.4289   -1.6500    0.0000 HC        1 <0>        0.00000
     31 H4          0.0000   -1.6500    0.0000 HA        1 <0>        0.00000
     32 H5          0.0000    0.0000    0.0000 HA        1 <0>        0.00000
     33 H6         -1.9592    0.6320    0.0000 HC        1 <0>        0.00000
     34 H7         -1.9592    0.6320    0.0000 HC        1 <0>        0.00000
     35 H8         -1.1468    0.7752    0.0000 HC        1 <0>        0.00000
     36 H9         -1.1468    0.7752    0.0000 HC        1 <0>        0.00000
     37 H10        -1.6771   -1.4072    0.0000 HA        1 <0>        0.00000
     38 H11        -2.2074   -2.0392    0.0000 HA        1 <0>        0.00000
     39 H12        -3.3020   -1.1207    0.0000 H4        1 <0>        0.00000
     40 H13        -4.3626   -2.3847    0.0000 HO        1 <0>        0.00000
     41 H14         0.8986    0.6320    0.0000 HC        1 <0>        0.00000
     42 H15         0.8986    0.6320    0.0000 HC        1 <0>        0.00000
     43 H16         0.8986    0.6320    0.0000 HC        1 <0>        0.00000
     44 H17         1.9592    0.6320    0.0000 HC        1 <0>        0.00000
     45 H18         1.9592    0.6320    0.0000 HC        1 <0>        0.00000
     46 H19         1.9592    0.6320    0.0000 HC        1 <0>        0.00000
     47 H20         2.1434   -0.4125    0.0000 HC        1 <0>        0.00000
     48 H21         2.1434   -0.4125    0.0000 HC        1 <0>        0.00000
     49 H22         2.1434   -1.2375    0.0000 HC        1 <0>        0.00000
     50 H23         2.1434   -1.2375    0.0000 HC        1 <0>        0.00000
     51 H24         1.8163   -2.3784    0.0000 HC        1 <0>        0.00000
     52 H25         1.8163   -2.3784    0.0000 HC        1 <0>        0.00000
     53 H26         1.8163   -2.3784    0.0000 HC        1 <0>        0.00000
     54 H27         1.0416   -2.3784    0.0000 HC        1 <0>        0.00000
     55 H28         1.0416   -2.3784    0.0000 HC        1 <0>        0.00000
     56 H29         1.0416   -2.3784    0.0000 HC        1 <0>        0.00000
@<TRIPOS>BOND
     1    1    2 1
     2    2    3 ar
     3    3    4 ar
     4    4    5 ar
     5    5    6 ar
     6    6    7 ar
     7    2    7 ar
     8    7    8 1
     9    8    9 1
    10    9   10 1
    11    8   10 1
    12    8   11 1
    13   11   12 ar
    14   12   13 ar
    15   13   14 ar
    16   14   15 ar
    17   15   16 ar
    18   11   16 ar
    19   14   17 1
    20   17   18 1
    21   17   19 2
    22    5   20 1
    23   20   21 1
    24   20   22 1
    25   20   23 1
    26   23   24 1
    27   24   25 1
    28    4   25 1
    29   25   26 1
    30   25   27 1
    31    1   28 1
    32    1   29 1
    33    1   30 1
    34    3   31 1
    35    6   32 1
    36    9   33 1
    37    9   34 1
    38   10   35 1
    39   10   36 1
    40   12   37 1
    41   13   38 1
    42   15   39 1
    43   18   40 1
    44   21   41 1
    45   21   42 1
    46   21   43 1
    47   22   44 1
    48   22   45 1
    49   22   46 1
    50   23   47 1
    51   23   48 1
    52   24   49 1
    53   24   50 1
    54   26   51 1
    55   26   52 1
    56   26   53 1
    57   27   54 1
    58   27   55 1
    59   27   56 1
@<TRIPOS>SUBSTRUCTURE
     1 <0>         1 GROUP 0 A     ****
@<TRIPOS>MOLECULE
MiniDrugBank_47
   36    37     1     0     0
SMALL
NO_CHARGES

@<TRIPOS>ATOM
      1 N1          0.5420    0.2323    0.0000 N         1 <0>        0.00000
      2 C1          1.2564   -0.1802    0.0000 C         1 <0>        0.00000
      3 O1          1.9709    0.2323    0.0000 O         1 <0>        0.00000
      4 C2          1.2564   -1.0052    0.0000 CM        1 <0>        0.00000
      5 C3          1.9239   -1.4901    0.0000 CM        1 <0>        0.00000
      6 O2          2.7085   -1.2352    0.0000 O2        1 <0>        0.00000
      7 N2          1.6689   -2.2748    0.0000 N3        1 <0>        0.00000
      8 C4          0.8439   -2.2748    0.0000 CT        1 <0>        0.00000
      9 N3          0.5890   -1.4901    0.0000 N3        1 <0>        0.00000
     10 C5          2.1538   -2.9422    0.0000 CT        1 <0>        0.00000
     11 O3          2.9788   -2.9422    0.0000 OS        1 <0>        0.00000
     12 C6          3.2338   -3.7268    0.0000 CT        1 <0>        0.00000
     13 C7          4.0184   -3.9818    0.0000 CT        1 <0>        0.00000
     14 O4          4.1899   -4.7887    0.0000 OS        1 <0>        0.00000
     15 P1          4.9746   -5.0437    0.0000 P         1 <0>        0.00000
     16 O5          5.7592   -5.2986    0.0000 O2        1 <0>        0.00000
     17 O6          4.7196   -5.8283    0.0000 O2        1 <0>        0.00000
     18 O7          5.2295   -4.2590    0.0000 O2        1 <0>        0.00000
     19 C8          2.5663   -4.2117    0.0000 CT        1 <0>        0.00000
     20 O8          2.5663   -5.0367    0.0000 OH        1 <0>        0.00000
     21 C9          1.8989   -3.7268    0.0000 CT        1 <0>        0.00000
     22 O9          1.1143   -3.9818    0.0000 OH        1 <0>        0.00000
     23 H1          0.5420    0.2323    0.0000 H         1 <0>        0.00000
     24 H2          0.5420    0.2323    0.0000 H         1 <0>        0.00000
     25 H3          0.8439   -2.2748    0.0000 HP        1 <0>        0.00000
     26 H4          0.8439   -2.2748    0.0000 HP        1 <0>        0.00000
     27 H5          0.5890   -1.4901    0.0000 H         1 <0>        0.00000
     28 H6          0.5890   -1.4901    0.0000 H         1 <0>        0.00000
     29 H7          2.1538   -2.9422    0.0000 H2        1 <0>        0.00000
     30 H8          3.2338   -3.7268    0.0000 H1        1 <0>        0.00000
     31 H9          4.0184   -3.9818    0.0000 H1        1 <0>        0.00000
     32 H10         4.0184   -3.9818    0.0000 H1        1 <0>        0.00000
     33 H11         2.5663   -4.2117    0.0000 H1        1 <0>        0.00000
     34 H12         2.5663   -5.0367    0.0000 HO        1 <0>        0.00000
     35 H13         1.8989   -3.7268    0.0000 H1        1 <0>        0.00000
     36 H14         1.1143   -3.9818    0.0000 HO        1 <0>        0.00000
@<TRIPOS>BOND
     1    1    2 am
     2    2    3 2
     3    2    4 1
     4    4    5 2
     5    5    6 1
     6    5    7 1
     7    7    8 1
     8    8    9 1
     9    4    9 1
    10    7   10 1
    11   10   11 1
    12   11   12 1
    13   12   13 1
    14   13   14 1
    15   14   15 1
    16   15   16 1
    17   15   17 1
    18   15   18 2
    19   12   19 1
    20   19   20 1
    21   19   21 1
    22   10   21 1
    23   21   22 1
    24    1   23 1
    25    1   24 1
    26    8   25 1
    27    8   26 1
    28    9   27 1
    29    9   28 1
    30   10   29 1
    31   12   30 1
    32   13   31 1
    33   13   32 1
    34   19   33 1
    35   20   34 1
    36   21   35 1
    37   22   36 1
@<TRIPOS>SUBSTRUCTURE
     1 <0>         1 GROUP 0 A     ****
@<TRIPOS>MOLECULE
TGN
   45    47     1     0     0
SMALL
NO_CHARGES

@<TRIPOS>ATOM
      1 C1          0.3512    0.9886    0.0000 CT        1 <0>        0.00000
      2 C2         -0.5775    0.9731    0.0000 CT        1 <0>        0.00000
      3 N1         -1.1382    1.4130    0.0000 N3        1 <0>        0.00000
      4 C3         -1.5608    2.1215    0.0000 CT        1 <0>        0.00000
      5 C4         -0.8981    0.2645    0.0000 CT        1 <0>        0.00000
      6 C5         -1.5184   -0.1124    0.0000 CT        1 <0>        0.00000
      7 C6         -0.9985    0.5998    0.0000 CT        1 <0>        0.00000
      8 C7         -0.0268    0.5998    0.0000 CT        1 <0>        0.00000
      9 C8          0.4894    0.1712    0.0000 CT        1 <0>        0.00000
     10 O1          0.9012   -0.5436    0.0000 OS        1 <0>        0.00000
     11 P1          0.4880   -1.2577    0.0000 P         1 <0>        0.00000
     12 O2         -0.2261   -0.8445    0.0000 O         1 <0>        0.00000
     13 O3          1.2021   -1.6708    0.0000 OH        1 <0>        0.00000
     14 C9          0.0748   -1.9717    0.0000 CA        1 <0>        0.00000
     15 C10         0.4866   -2.6866    0.0000 CA        1 <0>        0.00000
     16 C11        -0.7502   -1.9709    0.0000 CA        1 <0>        0.00000
     17 C12         0.0734   -3.4006    0.0000 CA        1 <0>        0.00000
     18 C13        -0.7516   -3.3998    0.0000 CA        1 <0>        0.00000
     19 C14        -1.1634   -2.6849    0.0000 CA        1 <0>        0.00000
     20 C15         0.8784    1.6231    0.0000 C         1 <0>        0.00000
     21 O4          1.6915    1.4838    0.0000 O         1 <0>        0.00000
     22 O5          0.5924    2.3970    0.0000 OS        1 <0>        0.00000
     23 C16         1.1198    3.0315    0.0000 CT        1 <0>        0.00000
     24 H1          0.0987    1.5152    0.0000 HC        1 <0>        0.00000
     25 H2         -0.7119    1.5414    0.0000 H1        1 <0>        0.00000
     26 H3         -1.2630    1.1205    0.0000 H1        1 <0>        0.00000
     27 H4          1.0389    0.3687    0.0000 H1        1 <0>        0.00000
     28 H5         -1.5608    2.1215    0.0000 H1        1 <0>        0.00000
     29 H6         -1.5608    2.1215    0.0000 H1        1 <0>        0.00000
     30 H7         -1.5608    2.1215    0.0000 H1        1 <0>        0.00000
     31 H8         -0.8981    0.2645    0.0000 HC        1 <0>        0.00000
     32 H9         -0.8981    0.2645    0.0000 HC        1 <0>        0.00000
     33 H10        -1.5184   -0.1124    0.0000 HC        1 <0>        0.00000
     34 H11        -1.5184   -0.1124    0.0000 HC        1 <0>        0.00000
     35 H12        -0.0268    0.5998    0.0000 HC        1 <0>        0.00000
     36 H13        -0.0268    0.5998    0.0000 HC        1 <0>        0.00000
     37 H14         1.2021   -1.6708    0.0000 HO        1 <0>        0.00000
     38 H15         0.4866   -2.6866    0.0000 HA        1 <0>        0.00000
     39 H16        -0.7502   -1.9709    0.0000 HA        1 <0>        0.00000
     40 H17         0.0734   -3.4006    0.0000 HA        1 <0>        0.00000
     41 H18        -0.7516   -3.3998    0.0000 HA        1 <0>        0.00000
     42 H19        -1.1634   -2.6849    0.0000 HA        1 <0>        0.00000
     43 H20         1.1198    3.0315    0.0000 H1        1 <0>        0.00000
     44 H21         1.1198    3.0315    0.0000 H1        1 <0>        0.00000
     45 H22         1.1198    3.0315    0.0000 H1        1 <0>        0.00000
@<TRIPOS>BOND
     1    1    2 1
     2    1    9 1
     3    1   20 1
     4    1   24 1
     5    2    3 1
     6    2    5 1
     7    2   25 1
     8    3    4 1
     9    3    7 1
    10    5    6 1
    11    6    7 1
    12    7    8 1
    13    7   26 1
    14    8    9 1
    15    9   10 1
    16    9   27 1
    17   10   11 1
    18   11   12 2
    19   11   13 1
    20   11   14 1
    21   14   15 ar
    22   14   16 ar
    23   15   17 ar
    24   16   19 ar
    25   17   18 ar
    26   18   19 ar
    27   20   21 2
    28   20   22 1
    29   22   23 1
    30    4   28 1
    31    4   29 1
    32    4   30 1
    33    5   31 1
    34    5   32 1
    35    6   33 1
    36    6   34 1
    37    8   35 1
    38    8   36 1
    39   13   37 1
    40   15   38 1
    41   16   39 1
    42   17   40 1
    43   18   41 1
    44   19   42 1
    45   23   43 1
    46   23   44 1
    47   23   45 1
@<TRIPOS>SUBSTRUCTURE
     1 <0>         1 GROUP 0 A     ****
@<TRIPOS>MOLECULE
TH4
   25    26     1     0     0
SMALL
NO_CHARGES

@<TRIPOS>ATOM
      1 C1          1.6025    1.0844    0.0000 CA        1 <0>        0.00000
      2 C2          1.7740    1.8914    0.0000 CA        1 <0>        0.00000
      3 C3          1.1609    2.4434    0.0000 CA        1 <0>        0.00000
      4 Cl1         1.3324    3.2504    0.0000 CL        1 <0>        0.00000
      5 N1          0.3763    2.1885    0.0000 NC        1 <0>        0.00000
      6 C4          0.2048    1.3815    0.0000 CA        1 <0>        0.00000
      7 C5          0.8179    0.8295    0.0000 CA        1 <0>        0.00000
      8 C6          0.6463    0.0225    0.0000 CT        1 <0>        0.00000
      9 N2         -0.1383   -0.2325    0.0000 N3        1 <0>        0.00000
     10 C7         -0.8057    0.2525    0.0000 CT        1 <0>        0.00000
     11 C8         -1.4732   -0.2325    0.0000 CT        1 <0>        0.00000
     12 S1         -1.2182   -1.0171    0.0000 S         1 <0>        0.00000
     13 C9         -0.3932   -1.0171    0.0000 C         1 <0>        0.00000
     14 N3          0.0917   -1.6845    0.0000 NB        1 <0>        0.00000
     15 C10        -0.2439   -2.4382    0.0000 C2        1 <0>        0.00000
     16 N4         -0.5794   -3.1919    0.0000 NL        1 <0>        0.00000
     17 H1          1.6025    1.0844    0.0000 HA        1 <0>        0.00000
     18 H2          1.7740    1.8914    0.0000 HA        1 <0>        0.00000
     19 H3          0.2048    1.3815    0.0000 H4        1 <0>        0.00000
     20 H4          0.6463    0.0225    0.0000 H1        1 <0>        0.00000
     21 H5          0.6463    0.0225    0.0000 H1        1 <0>        0.00000
     22 H6         -0.8057    0.2525    0.0000 H1        1 <0>        0.00000
     23 H7         -0.8057    0.2525    0.0000 H1        1 <0>        0.00000
     24 H8         -1.4732   -0.2325    0.0000 H1        1 <0>        0.00000
     25 H9         -1.4732   -0.2325    0.0000 H1        1 <0>        0.00000
@<TRIPOS>BOND
     1    1    7 ar
     2    1    2 ar
     3    2    3 ar
     4    3    5 ar
     5    3    4 1
     6    5    6 ar
     7    6    7 ar
     8    7    8 1
     9    8    9 1
    10    9   13 1
    11    9   10 1
    12   10   11 1
    13   11   12 1
    14   12   13 1
    15   13   14 2
    16   14   15 1
    17   15   16 3
    18    1   17 1
    19    2   18 1
    20    6   19 1
    21    8   20 1
    22    8   21 1
    23   10   22 1
    24   10   23 1
    25   11   24 1
    26   11   25 1
@<TRIPOS>SUBSTRUCTURE
     1 <0>         1 GROUP 0 A     ****
@<TRIPOS>MOLECULE
MiniDrugBank_50
   19    20     1     0     0
SMALL
NO_CHARGES

@<TRIPOS>ATOM
      1 C1         -1.7829    0.4144    0.0000 CA        1 <0>        0.00000
      2 C2         -1.7829   -0.4130    0.0000 CA        1 <0>        0.00000
      3 C3         -1.0705   -0.8244    0.0000 CA        1 <0>        0.00000
      4 C4         -1.0705    0.8304    0.0000 CA        1 <0>        0.00000
      5 C5         -0.3533    0.4144    0.0000 CB        1 <0>        0.00000
      6 C6         -0.3568   -0.4130    0.0000 CB        1 <0>        0.00000
      7 N1          0.3538   -0.8273    0.0000 NC        1 <0>        0.00000
      8 C7          1.0727   -0.4190    0.0000 CA        1 <0>        0.00000
      9 N2          1.0762    0.4084    0.0000 NC        1 <0>        0.00000
     10 N3          0.3608    0.8273    0.0000 NC        1 <0>        0.00000
     11 N4          1.7829   -0.8343    0.0000 N2        1 <0>        0.00000
     12 O1          0.3632    1.6500    0.0000 O2        1 <0>        0.00000
     13 O2          0.3492   -1.6500    0.0000 O2        1 <0>        0.00000
     14 H1         -1.7829    0.4144    0.0000 HA        1 <0>        0.00000
     15 H2         -1.7829   -0.4130    0.0000 HA        1 <0>        0.00000
     16 H3         -1.0705   -0.8244    0.0000 HA        1 <0>        0.00000
     17 H4         -1.0705    0.8304    0.0000 HA        1 <0>        0.00000
     18 H5          1.7829   -0.8343    0.0000 H         1 <0>        0.00000
     19 H6          1.7829   -0.8343    0.0000 H         1 <0>        0.00000
@<TRIPOS>BOND
     1    1    4 ar
     2    2    3 ar
     3    3    6 ar
     4    4    5 ar
     5    5   10 ar
     6    6    7 ar
     7    7    8 ar
     8    8    9 ar
     9    9   10 ar
    10    5    6 ar
    11    8   11 1
    12   10   12 1
    13    1    2 ar
    14    7   13 1
    15    1   14 1
    16    2   15 1
    17    3   16 1
    18    4   17 1
    19   11   18 1
    20   11   19 1
@<TRIPOS>SUBSTRUCTURE
     1 <0>         1 GROUP 0 A     ****
@<TRIPOS>MOLECULE
THN
   37    38     1     0     0
SMALL
NO_CHARGES

@<TRIPOS>ATOM
      1 S1         -1.7652    0.4533    0.0000 S         1 <0>        0.00000
      2 C1         -2.1777    1.1678    0.0000 CT        1 <0>        0.00000
      3 C2         -1.7652    1.8823    0.0000 CM        1 <0>        0.00000
      4 C3         -2.1777    2.5968    0.0000 CM        1 <0>        0.00000
      5 C4         -0.9402    1.8823    0.0000 CT        1 <0>        0.00000
      6 C5         -0.5277    2.5968    0.0000 C         1 <0>        0.00000
      7 O1          0.2973    2.5968    0.0000 OH        1 <0>        0.00000
      8 O2         -0.9402    3.3112    0.0000 O         1 <0>        0.00000
      9 N1         -0.5277    1.1678    0.0000 NB        1 <0>        0.00000
     10 C6         -0.9402    0.4533    0.0000 C         1 <0>        0.00000
     11 C7         -0.5277   -0.2611    0.0000 CT        1 <0>        0.00000
     12 C8         -0.9402   -0.9756    0.0000 C         1 <0>        0.00000
     13 O3         -0.5277   -1.6901    0.0000 O         1 <0>        0.00000
     14 O4         -1.7652   -0.9756    0.0000 OH        1 <0>        0.00000
     15 N2          0.2973   -0.2611    0.0000 N         1 <0>        0.00000
     16 C9          0.7098   -0.9756    0.0000 C         1 <0>        0.00000
     17 O5          0.2973   -1.6901    0.0000 O         1 <0>        0.00000
     18 C10         1.5348   -0.9756    0.0000 CT        1 <0>        0.00000
     19 C11         1.9473   -1.6901    0.0000 CW        1 <0>        0.00000
     20 C12         2.7678   -1.7763    0.0000 CC        1 <0>        0.00000
     21 C13         2.9393   -2.5833    0.0000 CC        1 <0>        0.00000
     22 C14         2.2249   -2.9958    0.0000 CW        1 <0>        0.00000
     23 S2          1.6118   -2.4437    0.0000 S         1 <0>        0.00000
     24 H1         -1.2321    2.3880    0.0000 H1        1 <0>        0.00000
     25 H2         -1.1116   -0.2611    0.0000 H1        1 <0>        0.00000
     26 H3         -2.1777    1.1678    0.0000 H1        1 <0>        0.00000
     27 H4         -2.1777    1.1678    0.0000 H1        1 <0>        0.00000
     28 H5         -2.1777    2.5968    0.0000 HA        1 <0>        0.00000
     29 H6         -2.1777    2.5968    0.0000 HA        1 <0>        0.00000
     30 H7          0.2973    2.5968    0.0000 HO        1 <0>        0.00000
     31 H8         -1.7652   -0.9756    0.0000 HO        1 <0>        0.00000
     32 H9          0.2973   -0.2611    0.0000 H         1 <0>        0.00000
     33 H10         1.5348   -0.9756    0.0000 HC        1 <0>        0.00000
     34 H11         1.5348   -0.9756    0.0000 HC        1 <0>        0.00000
     35 H12         2.7678   -1.7763    0.0000 HA        1 <0>        0.00000
     36 H13         2.9393   -2.5833    0.0000 HA        1 <0>        0.00000
     37 H14         2.2249   -2.9958    0.0000 H4        1 <0>        0.00000
@<TRIPOS>BOND
     1    1    2 1
     2    1   10 1
     3    2    3 1
     4    3    4 2
     5    3    5 1
     6    5    6 1
     7    5    9 1
     8    5   24 1
     9    6    7 1
    10    6    8 2
    11    9   10 2
    12   10   11 1
    13   11   12 1
    14   11   15 1
    15   11   25 1
    16   12   13 2
    17   12   14 1
    18   15   16 am
    19   16   17 2
    20   16   18 1
    21   18   19 1
    22   19   20 2
    23   19   23 1
    24   20   21 1
    25   21   22 2
    26   22   23 1
    27    2   26 1
    28    2   27 1
    29    4   28 1
    30    4   29 1
    31    7   30 1
    32   14   31 1
    33   15   32 1
    34   18   33 1
    35   18   34 1
    36   20   35 1
    37   21   36 1
    38   22   37 1
@<TRIPOS>SUBSTRUCTURE
     1 <0>         1 GROUP 0 A     ****
@<TRIPOS>MOLECULE
MiniDrugBank_52
   30    30     1     0     0
SMALL
NO_CHARGES

@<TRIPOS>ATOM
      1 N1         -0.7066    1.0881    0.0000 N3        1 <0>        0.00000
      2 C1         -0.7066    0.2631    0.0000 CT        1 <0>        0.00000
      3 C2         -1.4211   -0.1494    0.0000 CT        1 <0>        0.00000
      4 S1         -2.1356    0.2631    0.0000 S         1 <0>        0.00000
      5 C3         -2.8501   -0.1494    0.0000 CT        1 <0>        0.00000
      6 N2         -2.9363   -0.9698    0.0000 N3        1 <0>        0.00000
      7 O1         -3.7433   -1.1414    0.0000 OS        1 <0>        0.00000
      8 C4         -4.1558   -0.4269    0.0000 CM        1 <0>        0.00000
      9 C5         -3.6037    0.1862    0.0000 CM        1 <0>        0.00000
     10 C6         -4.9762   -0.3407    0.0000 CT        1 <0>        0.00000
     11 N3         -5.3118    0.4130    0.0000 N3        1 <0>        0.00000
     12 C7         -5.4612   -1.0081    0.0000 C         1 <0>        0.00000
     13 O2         -6.2816   -0.9219    0.0000 OH        1 <0>        0.00000
     14 O3         -5.1256   -1.7618    0.0000 O         1 <0>        0.00000
     15 C8          0.0078   -0.1494    0.0000 C         1 <0>        0.00000
     16 O4          0.7223    0.2631    0.0000 OH        1 <0>        0.00000
     17 O5          0.0078   -0.9744    0.0000 O         1 <0>        0.00000
     18 H1         -0.7066    1.0881    0.0000 H         1 <0>        0.00000
     19 H2         -0.7066    1.0881    0.0000 H         1 <0>        0.00000
     20 H3         -0.7066    0.2631    0.0000 H1        1 <0>        0.00000
     21 H4         -1.4211   -0.1494    0.0000 H1        1 <0>        0.00000
     22 H5         -1.4211   -0.1494    0.0000 H1        1 <0>        0.00000
     23 H6         -2.8501   -0.1494    0.0000 H2        1 <0>        0.00000
     24 H7         -2.9363   -0.9698    0.0000 H         1 <0>        0.00000
     25 H8         -3.6037    0.1862    0.0000 HA        1 <0>        0.00000
     26 H9         -4.9762   -0.3407    0.0000 H1        1 <0>        0.00000
     27 H10        -5.3118    0.4130    0.0000 H         1 <0>        0.00000
     28 H11        -5.3118    0.4130    0.0000 H         1 <0>        0.00000
     29 H12        -6.2816   -0.9219    0.0000 HO        1 <0>        0.00000
     30 H13         0.7223    0.2631    0.0000 HO        1 <0>        0.00000
@<TRIPOS>BOND
     1    1    2 1
     2    2    3 1
     3    3    4 1
     4    4    5 1
     5    5    6 1
     6    6    7 1
     7    7    8 1
     8    8    9 2
     9    5    9 1
    10    8   10 1
    11   10   11 1
    12   10   12 1
    13   12   13 1
    14   12   14 2
    15    2   15 1
    16   15   16 1
    17   15   17 2
    18    1   18 1
    19    1   19 1
    20    2   20 1
    21    3   21 1
    22    3   22 1
    23    5   23 1
    24    6   24 1
    25    9   25 1
    26   10   26 1
    27   11   27 1
    28   11   28 1
    29   13   29 1
    30   16   30 1
@<TRIPOS>SUBSTRUCTURE
     1 <0>         1 GROUP 0 A     ****
@<TRIPOS>MOLECULE
35A
   65    67     1     0     0
SMALL
NO_CHARGES

@<TRIPOS>ATOM
      1 C1         -0.9931    0.7445    0.0000 CA        1 <0>        0.00000
      2 C2         -0.6095    0.0141    0.0000 CA        1 <0>        0.00000
      3 C3          4.1262    0.0141    0.0000 CA        1 <0>        0.00000
      4 C4          3.7426    0.7445    0.0000 CA        1 <0>        0.00000
      5 O1          0.2036    2.0313    0.0000 OS        1 <0>        0.00000
      6 C5         -0.5001    1.6008    0.0000 CT        1 <0>        0.00000
      7 C6          2.9183    0.7775    0.0000 CA        1 <0>        0.00000
      8 C7          2.4877    1.4812    0.0000 CT        1 <0>        0.00000
      9 C8          1.8206    1.9666    0.0000 CT        1 <0>        0.00000
     10 C9          3.6855   -0.6833    0.0000 CA        1 <0>        0.00000
     11 C10         2.8611   -0.6503    0.0000 CA        1 <0>        0.00000
     12 C11         2.4775    0.0800    0.0000 CA        1 <0>        0.00000
     13 C12         0.0474   -1.8725    0.0000 CT        1 <0>        0.00000
     14 C13         0.8495   -2.0657    0.0000 CT        1 <0>        0.00000
     15 C14         1.6644   -1.9372    0.0000 CT        1 <0>        0.00000
     16 C15         2.3681   -1.5066    0.0000 CT        1 <0>        0.00000
     17 C16        -1.0502   -0.6833    0.0000 CA        1 <0>        0.00000
     18 C17        -0.6197   -1.3871    0.0000 CT        1 <0>        0.00000
     19 N1         -1.8746   -0.6503    0.0000 NC        1 <0>        0.00000
     20 C18        -1.8174    0.7775    0.0000 CA        1 <0>        0.00000
     21 C19        -2.2582    0.0800    0.0000 CA        1 <0>        0.00000
     22 N2         -3.0825    0.1130    0.0000 N3        1 <0>        0.00000
     23 S1         -3.5233   -0.5844    0.0000 SO        1 <0>        0.00000
     24 C20        -3.9640   -1.2818    0.0000 CT        1 <0>        0.00000
     25 O2         -4.2207   -0.1436    0.0000 O2        1 <0>        0.00000
     26 O3         -2.8258   -1.0251    0.0000 O2        1 <0>        0.00000
     27 C21        -3.4661    0.8434    0.0000 CT        1 <0>        0.00000
     28 C22         0.8165   -2.8900    0.0000 CT        1 <0>        0.00000
     29 C23         1.0186    2.1598    0.0000 C         1 <0>        0.00000
     30 O4          1.0515    2.9841    0.0000 O         1 <0>        0.00000
     31 C24         2.4377    2.5142    0.0000 CT        1 <0>        0.00000
     32 N3          1.8374    2.7914    0.0000 N3        1 <0>        0.00000
     33 H1          0.3836   -2.4177    0.0000 HC        1 <0>        0.00000
     34 H2         -0.6095    0.0141    0.0000 HA        1 <0>        0.00000
     35 H3          4.1262    0.0141    0.0000 HA        1 <0>        0.00000
     36 H4          3.7426    0.7445    0.0000 HA        1 <0>        0.00000
     37 H5         -0.5001    1.6008    0.0000 H1        1 <0>        0.00000
     38 H6         -0.5001    1.6008    0.0000 H1        1 <0>        0.00000
     39 H7          2.4877    1.4812    0.0000 HC        1 <0>        0.00000
     40 H8          2.4877    1.4812    0.0000 HC        1 <0>        0.00000
     41 H9          3.6855   -0.6833    0.0000 HA        1 <0>        0.00000
     42 H10         2.4775    0.0800    0.0000 HA        1 <0>        0.00000
     43 H11         0.0474   -1.8725    0.0000 HC        1 <0>        0.00000
     44 H12         0.0474   -1.8725    0.0000 HC        1 <0>        0.00000
     45 H13         1.6644   -1.9372    0.0000 HC        1 <0>        0.00000
     46 H14         1.6644   -1.9372    0.0000 HC        1 <0>        0.00000
     47 H15         2.3681   -1.5066    0.0000 HC        1 <0>        0.00000
     48 H16         2.3681   -1.5066    0.0000 HC        1 <0>        0.00000
     49 H17        -0.6197   -1.3871    0.0000 HC        1 <0>        0.00000
     50 H18        -0.6197   -1.3871    0.0000 HC        1 <0>        0.00000
     51 H19        -1.8174    0.7775    0.0000 HA        1 <0>        0.00000
     52 H20        -3.9640   -1.2818    0.0000 H1        1 <0>        0.00000
     53 H21        -3.9640   -1.2818    0.0000 H1        1 <0>        0.00000
     54 H22        -3.9640   -1.2818    0.0000 H1        1 <0>        0.00000
     55 H23        -3.4661    0.8434    0.0000 H1        1 <0>        0.00000
     56 H24        -3.4661    0.8434    0.0000 H1        1 <0>        0.00000
     57 H25        -3.4661    0.8434    0.0000 H1        1 <0>        0.00000
     58 H26         0.8165   -2.8900    0.0000 HC        1 <0>        0.00000
     59 H27         0.8165   -2.8900    0.0000 HC        1 <0>        0.00000
     60 H28         0.8165   -2.8900    0.0000 HC        1 <0>        0.00000
     61 H29         2.4377    2.5142    0.0000 HC        1 <0>        0.00000
     62 H30         2.4377    2.5142    0.0000 HC        1 <0>        0.00000
     63 H31         2.4377    2.5142    0.0000 HC        1 <0>        0.00000
     64 H32         1.8374    2.7914    0.0000 H         1 <0>        0.00000
     65 H33         1.8374    2.7914    0.0000 H         1 <0>        0.00000
@<TRIPOS>BOND
     1    1   20 ar
     2    1    6 1
     3    1    2 ar
     4    2   17 ar
     5    3    4 ar
     6    3   10 ar
     7    4    7 ar
     8    5    6 1
     9    5   29 1
    10    7    8 1
    11    7   12 ar
    12    8    9 1
    13    9   29 1
    14    9   31 1
    15    9   32 1
    16   10   11 ar
    17   11   12 ar
    18   11   16 1
    19   13   18 1
    20   13   14 1
    21   14   15 1
    22   14   28 1
    23   14   33 1
    24   15   16 1
    25   17   19 ar
    26   17   18 1
    27   19   21 ar
    28   20   21 ar
    29   21   22 1
    30   22   27 1
    31   22   23 1
    32   23   24 1
    33   23   25 2
    34   23   26 2
    35   29   30 2
    36    2   34 1
    37    3   35 1
    38    4   36 1
    39    6   37 1
    40    6   38 1
    41    8   39 1
    42    8   40 1
    43   10   41 1
    44   12   42 1
    45   13   43 1
    46   13   44 1
    47   15   45 1
    48   15   46 1
    49   16   47 1
    50   16   48 1
    51   18   49 1
    52   18   50 1
    53   20   51 1
    54   24   52 1
    55   24   53 1
    56   24   54 1
    57   27   55 1
    58   27   56 1
    59   27   57 1
    60   28   58 1
    61   28   59 1
    62   28   60 1
    63   31   61 1
    64   31   62 1
    65   31   63 1
    66   32   64 1
    67   32   65 1
@<TRIPOS>SUBSTRUCTURE
     1 <0>         1 GROUP 0 A     ****
@<TRIPOS>MOLECULE
BHY
   56    57     1     0     0
SMALL
NO_CHARGES

@<TRIPOS>ATOM
      1 N1         -3.6987   -1.9369    0.0000 N3        1 <0>        0.00000
      2 C1         -0.8409   -1.9369    0.0000 CA        1 <0>        0.00000
      3 N2          3.4460    2.1881    0.0000 N3        1 <0>        0.00000
      4 C2         -0.1264   -0.6994    0.0000 CP        1 <0>        0.00000
      5 O1         -5.1277   -1.1119    0.0000 O2        1 <0>        0.00000
      6 C3         -1.5553   -0.6994    0.0000 CA        1 <0>        0.00000
      7 C4          2.0170    0.5381    0.0000 CA        1 <0>        0.00000
      8 C5         -1.5553   -1.5244    0.0000 CA        1 <0>        0.00000
      9 O2          3.4460    3.8381    0.0000 O2        1 <0>        0.00000
     10 S1          3.4460    3.0131    0.0000 SO        1 <0>        0.00000
     11 O3          4.2710    3.0131    0.0000 O2        1 <0>        0.00000
     12 S2         -4.4132   -1.5244    0.0000 SO        1 <0>        0.00000
     13 C6         -0.1264   -1.5244    0.0000 CA        1 <0>        0.00000
     14 O4         -4.8257   -2.2388    0.0000 O2        1 <0>        0.00000
     15 C7         -0.8409   -0.2869    0.0000 CA        1 <0>        0.00000
     16 C8          2.0170   -0.2869    0.0000 CA        1 <0>        0.00000
     17 C9          1.3026   -0.6994    0.0000 CA        1 <0>        0.00000
     18 C10         0.5881   -0.2869    0.0000 CP        1 <0>        0.00000
     19 C11         0.5881    0.5381    0.0000 CA        1 <0>        0.00000
     20 C12         1.3026    0.9506    0.0000 CA        1 <0>        0.00000
     21 C13         2.7315    0.9506    0.0000 CT        1 <0>        0.00000
     22 C14        -2.2698   -1.9369    0.0000 CT        1 <0>        0.00000
     23 C15        -2.9843   -1.5244    0.0000 CT        1 <0>        0.00000
     24 C16        -2.2698   -2.7619    0.0000 CT        1 <0>        0.00000
     25 C17         3.4460    0.5381    0.0000 CT        1 <0>        0.00000
     26 C18         2.7315    1.7756    0.0000 CT        1 <0>        0.00000
     27 C19         2.6210    3.0131    0.0000 CT        1 <0>        0.00000
     28 C20        -4.0007   -0.8099    0.0000 CT        1 <0>        0.00000
     29 H1          2.7315    0.3667    0.0000 HC        1 <0>        0.00000
     30 H2         -2.2698   -1.3529    0.0000 HC        1 <0>        0.00000
     31 H3         -3.6987   -1.9369    0.0000 H         1 <0>        0.00000
     32 H4         -0.8409   -1.9369    0.0000 HA        1 <0>        0.00000
     33 H5          3.4460    2.1881    0.0000 H         1 <0>        0.00000
     34 H6         -1.5553   -0.6994    0.0000 HA        1 <0>        0.00000
     35 H7         -0.1264   -1.5244    0.0000 HA        1 <0>        0.00000
     36 H8         -0.8409   -0.2869    0.0000 HA        1 <0>        0.00000
     37 H9          2.0170   -0.2869    0.0000 HA        1 <0>        0.00000
     38 H10         1.3026   -0.6994    0.0000 HA        1 <0>        0.00000
     39 H11         0.5881    0.5381    0.0000 HA        1 <0>        0.00000
     40 H12         1.3026    0.9506    0.0000 HA        1 <0>        0.00000
     41 H13        -2.9843   -1.5244    0.0000 H1        1 <0>        0.00000
     42 H14        -2.9843   -1.5244    0.0000 H1        1 <0>        0.00000
     43 H15        -2.2698   -2.7619    0.0000 HC        1 <0>        0.00000
     44 H16        -2.2698   -2.7619    0.0000 HC        1 <0>        0.00000
     45 H17        -2.2698   -2.7619    0.0000 HC        1 <0>        0.00000
     46 H18         3.4460    0.5381    0.0000 HC        1 <0>        0.00000
     47 H19         3.4460    0.5381    0.0000 HC        1 <0>        0.00000
     48 H20         3.4460    0.5381    0.0000 HC        1 <0>        0.00000
     49 H21         2.7315    1.7756    0.0000 H1        1 <0>        0.00000
     50 H22         2.7315    1.7756    0.0000 H1        1 <0>        0.00000
     51 H23         2.6210    3.0131    0.0000 H1        1 <0>        0.00000
     52 H24         2.6210    3.0131    0.0000 H1        1 <0>        0.00000
     53 H25         2.6210    3.0131    0.0000 H1        1 <0>        0.00000
     54 H26        -4.0007   -0.8099    0.0000 H1        1 <0>        0.00000
     55 H27        -4.0007   -0.8099    0.0000 H1        1 <0>        0.00000
     56 H28        -4.0007   -0.8099    0.0000 H1        1 <0>        0.00000
@<TRIPOS>BOND
     1    1   12 1
     2    1   23 1
     3    2    8 ar
     4    2   13 ar
     5    3   10 1
     6    3   26 1
     7    4   13 ar
     8    4   15 ar
     9    4   18 1
    10    5   12 2
    11    6    8 ar
    12    6   15 ar
    13    7   16 ar
    14    7   20 ar
    15    7   21 1
    16    8   22 1
    17    9   10 2
    18   10   11 2
    19   10   27 1
    20   12   14 2
    21   12   28 1
    22   16   17 ar
    23   17   18 ar
    24   18   19 ar
    25   19   20 ar
    26   21   25 1
    27   21   26 1
    28   21   29 1
    29   22   23 1
    30   22   24 1
    31   22   30 1
    32    1   31 1
    33    2   32 1
    34    3   33 1
    35    6   34 1
    36   13   35 1
    37   15   36 1
    38   16   37 1
    39   17   38 1
    40   19   39 1
    41   20   40 1
    42   23   41 1
    43   23   42 1
    44   24   43 1
    45   24   44 1
    46   24   45 1
    47   25   46 1
    48   25   47 1
    49   25   48 1
    50   26   49 1
    51   26   50 1
    52   27   51 1
    53   27   52 1
    54   27   53 1
    55   28   54 1
    56   28   55 1
    57   28   56 1
@<TRIPOS>SUBSTRUCTURE
     1 <0>         1 GROUP 0 A     ****
@<TRIPOS>MOLECULE
371
   45    48     1     0     0
SMALL
NO_CHARGES

@<TRIPOS>ATOM
      1 O1         -0.1050   -2.3389    0.0000 OS        1 <0>        0.00000
      2 C1         -0.8195   -2.7514    0.0000 CP        1 <0>        0.00000
      3 C2         -0.8195   -3.5764    0.0000 CA        1 <0>        0.00000
      4 C3         -0.1050   -3.9889    0.0000 C         1 <0>        0.00000
      5 C4          1.3239   -3.9889    0.0000 CA        1 <0>        0.00000
      6 C5          2.0384   -3.5764    0.0000 CA        1 <0>        0.00000
      7 C6          2.0384   -2.7514    0.0000 CA        1 <0>        0.00000
      8 C7          1.3239   -2.3389    0.0000 CA        1 <0>        0.00000
      9 C8          0.6094   -2.7514    0.0000 CB        1 <0>        0.00000
     10 C9          0.6094   -3.5764    0.0000 CB        1 <0>        0.00000
     11 O2         -0.1050   -4.8139    0.0000 O         1 <0>        0.00000
     12 C10        -1.5340   -2.3389    0.0000 CP        1 <0>        0.00000
     13 C11        -2.2484   -2.7514    0.0000 CA        1 <0>        0.00000
     14 C12        -2.9629   -2.3389    0.0000 CA        1 <0>        0.00000
     15 C13        -2.9629   -1.5139    0.0000 CA        1 <0>        0.00000
     16 C14        -2.2484   -1.1014    0.0000 CA        1 <0>        0.00000
     17 C15        -1.5340   -1.5139    0.0000 CA        1 <0>        0.00000
     18 C16         2.7529   -3.9889    0.0000 CT        1 <0>        0.00000
     19 O3         -1.5340   -3.9889    0.0000 OH        1 <0>        0.00000
     20 O4         -2.2484   -0.2764    0.0000 OH        1 <0>        0.00000
     21 O5         -3.6774   -1.1014    0.0000 OH        1 <0>        0.00000
     22 C17         0.9114   -0.2443    0.0000 CT        1 <0>        0.00000
     23 C18         0.6565   -1.0289    0.0000 CT        1 <0>        0.00000
     24 N1          1.3239   -1.5139    0.0000 N3        1 <0>        0.00000
     25 S1          1.9914   -1.0289    0.0000 SO        1 <0>        0.00000
     26 C19         1.7364   -0.2443    0.0000 CT        1 <0>        0.00000
     27 O6          2.5498   -1.6362    0.0000 O2        1 <0>        0.00000
     28 O7          2.8001   -0.8659    0.0000 O2        1 <0>        0.00000
     29 H1          1.3239   -3.9889    0.0000 HA        1 <0>        0.00000
     30 H2          2.0384   -2.7514    0.0000 HA        1 <0>        0.00000
     31 H3         -2.2484   -2.7514    0.0000 HA        1 <0>        0.00000
     32 H4         -2.9629   -2.3389    0.0000 HA        1 <0>        0.00000
     33 H5         -1.5340   -1.5139    0.0000 HA        1 <0>        0.00000
     34 H6          2.7529   -3.9889    0.0000 HC        1 <0>        0.00000
     35 H7          2.7529   -3.9889    0.0000 HC        1 <0>        0.00000
     36 H8          2.7529   -3.9889    0.0000 HC        1 <0>        0.00000
     37 H9         -1.5340   -3.9889    0.0000 HO        1 <0>        0.00000
     38 H10        -2.2484   -0.2764    0.0000 HO        1 <0>        0.00000
     39 H11        -3.6774   -1.1014    0.0000 HO        1 <0>        0.00000
     40 H12         0.9114   -0.2443    0.0000 HC        1 <0>        0.00000
     41 H13         0.9114   -0.2443    0.0000 HC        1 <0>        0.00000
     42 H14         0.6565   -1.0289    0.0000 H1        1 <0>        0.00000
     43 H15         0.6565   -1.0289    0.0000 H1        1 <0>        0.00000
     44 H16         1.7364   -0.2443    0.0000 H1        1 <0>        0.00000
     45 H17         1.7364   -0.2443    0.0000 H1        1 <0>        0.00000
@<TRIPOS>BOND
     1    1    2 1
     2    1    9 1
     3    2   12 1
     4    2    3 2
     5    3   19 1
     6    3    4 1
     7    4   10 1
     8    4   11 2
     9    5   10 ar
    10    5    6 ar
    11    6    7 ar
    12    6   18 1
    13    7    8 ar
    14    8   24 1
    15    8    9 ar
    16    9   10 ar
    17   12   13 ar
    18   12   17 ar
    19   13   14 ar
    20   14   15 ar
    21   15   21 1
    22   15   16 ar
    23   16   20 1
    24   16   17 ar
    25   22   26 1
    26   22   23 1
    27   23   24 1
    28   24   25 1
    29   25   26 1
    30   25   27 2
    31   25   28 2
    32    5   29 1
    33    7   30 1
    34   13   31 1
    35   14   32 1
    36   17   33 1
    37   18   34 1
    38   18   35 1
    39   18   36 1
    40   19   37 1
    41   20   38 1
    42   21   39 1
    43   22   40 1
    44   22   41 1
    45   23   42 1
    46   23   43 1
    47   26   44 1
    48   26   45 1
@<TRIPOS>SUBSTRUCTURE
     1 <0>         1 GROUP 0 A     ****
@<TRIPOS>MOLECULE
PUZ
   47    49     1     0     0
SMALL
NO_CHARGES

@<TRIPOS>ATOM
      1 C1         -4.3829    0.8609    0.0000 C2        1 <0>        0.00000
      2 C2         -3.6685    0.4484    0.0000 C2        1 <0>        0.00000
      3 C3         -2.9540    0.0359    0.0000 CT        1 <0>        0.00000
      4 C4         -2.2395    0.4484    0.0000 CT        1 <0>        0.00000
      5 C5         -1.5250    0.0359    0.0000 CT        1 <0>        0.00000
      6 N1         -0.8106    0.4484    0.0000 N*        1 <0>        0.00000
      7 C6         -0.7243    1.2689    0.0000 CB        1 <0>        0.00000
      8 N2         -1.2764    1.8820    0.0000 NC        1 <0>        0.00000
      9 C7          0.0826    1.4404    0.0000 CB        1 <0>        0.00000
     10 C8          0.3376    2.2251    0.0000 CA        1 <0>        0.00000
     11 N3          1.1446    2.3966    0.0000 N2        1 <0>        0.00000
     12 N4         -0.2145    2.8381    0.0000 NC        1 <0>        0.00000
     13 C9         -1.0214    2.6666    0.0000 CA        1 <0>        0.00000
     14 F1         -1.5735    3.2797    0.0000 F         1 <0>        0.00000
     15 N5          0.4951    0.7260    0.0000 NB        1 <0>        0.00000
     16 C10        -0.0569    0.1129    0.0000 CR        1 <0>        0.00000
     17 C11         0.1146   -0.6941    0.0000 CT        1 <0>        0.00000
     18 C12         0.8993   -0.9490    0.0000 CA        1 <0>        0.00000
     19 C13         1.5124   -0.3970    0.0000 CA        1 <0>        0.00000
     20 O1          1.3408    0.4100    0.0000 OS        1 <0>        0.00000
     21 C14         1.9539    0.9620    0.0000 CT        1 <0>        0.00000
     22 C15         2.2970   -0.6520    0.0000 CA        1 <0>        0.00000
     23 C16         2.4685   -1.4589    0.0000 CA        1 <0>        0.00000
     24 C17         1.8554   -2.0110    0.0000 CA        1 <0>        0.00000
     25 C18         1.0708   -1.7560    0.0000 CA        1 <0>        0.00000
     26 O2          2.0269   -2.8179    0.0000 OS        1 <0>        0.00000
     27 C19         2.8116   -3.0729    0.0000 CT        1 <0>        0.00000
     28 H1         -4.3829    0.8609    0.0000 HC        1 <0>        0.00000
     29 H2         -2.9540    0.0359    0.0000 HC        1 <0>        0.00000
     30 H3         -2.9540    0.0359    0.0000 HC        1 <0>        0.00000
     31 H4         -2.2395    0.4484    0.0000 HC        1 <0>        0.00000
     32 H5         -2.2395    0.4484    0.0000 HC        1 <0>        0.00000
     33 H6         -1.5250    0.0359    0.0000 H1        1 <0>        0.00000
     34 H7         -1.5250    0.0359    0.0000 H1        1 <0>        0.00000
     35 H8          1.1446    2.3966    0.0000 H         1 <0>        0.00000
     36 H9          1.1446    2.3966    0.0000 H         1 <0>        0.00000
     37 H10         0.1146   -0.6941    0.0000 HC        1 <0>        0.00000
     38 H11         0.1146   -0.6941    0.0000 HC        1 <0>        0.00000
     39 H12         1.9539    0.9620    0.0000 H1        1 <0>        0.00000
     40 H13         1.9539    0.9620    0.0000 H1        1 <0>        0.00000
     41 H14         1.9539    0.9620    0.0000 H1        1 <0>        0.00000
     42 H15         2.2970   -0.6520    0.0000 HA        1 <0>        0.00000
     43 H16         2.4685   -1.4589    0.0000 HA        1 <0>        0.00000
     44 H17         1.0708   -1.7560    0.0000 HA        1 <0>        0.00000
     45 H18         2.8116   -3.0729    0.0000 H1        1 <0>        0.00000
     46 H19         2.8116   -3.0729    0.0000 H1        1 <0>        0.00000
     47 H20         2.8116   -3.0729    0.0000 H1        1 <0>        0.00000
@<TRIPOS>BOND
     1    1    2 3
     2    2    3 1
     3    3    4 1
     4    4    5 1
     5    5    6 1
     6    6    7 1
     7    6   16 1
     8    7    8 ar
     9    7    9 ar
    10    8   13 ar
    11    9   10 ar
    12    9   15 1
    13   10   11 1
    14   10   12 ar
    15   12   13 ar
    16   13   14 1
    17   15   16 2
    18   16   17 1
    19   17   18 1
    20   18   19 ar
    21   18   25 ar
    22   19   20 1
    23   19   22 ar
    24   20   21 1
    25   22   23 ar
    26   23   24 ar
    27   24   25 ar
    28   24   26 1
    29   26   27 1
    30    1   28 1
    31    3   29 1
    32    3   30 1
    33    4   31 1
    34    4   32 1
    35    5   33 1
    36    5   34 1
    37   11   35 1
    38   11   36 1
    39   17   37 1
    40   17   38 1
    41   21   39 1
    42   21   40 1
    43   21   41 1
    44   22   42 1
    45   23   43 1
    46   25   44 1
    47   27   45 1
    48   27   46 1
    49   27   47 1
@<TRIPOS>SUBSTRUCTURE
     1 <0>         1 GROUP 0 A     ****
@<TRIPOS>MOLECULE
228
   12    11     1     0     0
SMALL
NO_CHARGES

@<TRIPOS>ATOM
      1 Cl1         5.2224   -0.2615    0.0000 CL        1 <0>        0.00000
      2 F1          3.3810    0.4529    0.0000 F         1 <0>        0.00000
      3 F2          4.2060   -0.9760    0.0000 F         1 <0>        0.00000
      4 F3          4.5080    0.9760    0.0000 F         1 <0>        0.00000
      5 F4          1.6500   -0.6740    0.0000 F         1 <0>        0.00000
      6 F5          2.3645    0.5635    0.0000 F         1 <0>        0.00000
      7 O1          3.0791   -0.6740    0.0000 OS        1 <0>        0.00000
      8 C1          3.7935   -0.2615    0.0000 CT        1 <0>        0.00000
      9 C2          4.5080    0.1510    0.0000 CT        1 <0>        0.00000
     10 C3          2.3645   -0.2615    0.0000 CT        1 <0>        0.00000
     11 H1          4.5080    0.1510    0.0000 H2        1 <0>        0.00000
     12 H2          2.3645   -0.2615    0.0000 H3        1 <0>        0.00000
@<TRIPOS>BOND
     1    1    9 1
     2    2    8 1
     3    3    8 1
     4    4    9 1
     5    5   10 1
     6    6   10 1
     7    7    8 1
     8    7   10 1
     9    8    9 1
    10    9   11 1
    11   10   12 1
@<TRIPOS>SUBSTRUCTURE
     1 <0>         1 GROUP 0 A     ****
@<TRIPOS>MOLECULE
MiniDrugBank_58
   67    72     1     0     0
SMALL
NO_CHARGES

@<TRIPOS>ATOM
      1 O1         -4.7534    3.5889    0.0000 OH        1 <0>        0.00000
      2 P1         -4.3409    2.8744    0.0000 P         1 <0>        0.00000
      3 O2         -5.0554    2.4619    0.0000 OH        1 <0>        0.00000
      4 O3         -3.6265    3.2869    0.0000 O         1 <0>        0.00000
      5 C1         -3.9284    2.1599    0.0000 CT        1 <0>        0.00000
      6 F1         -4.6429    1.7474    0.0000 F         1 <0>        0.00000
      7 F2         -3.2140    2.5724    0.0000 F         1 <0>        0.00000
      8 C2         -3.5159    1.4455    0.0000 CA        1 <0>        0.00000
      9 C3         -2.6909    1.4455    0.0000 CA        1 <0>        0.00000
     10 C4         -2.2784    0.7310    0.0000 CA        1 <0>        0.00000
     11 C5         -2.6909    0.0165    0.0000 CA        1 <0>        0.00000
     12 C6         -2.2784   -0.6979    0.0000 CT        1 <0>        0.00000
     13 C7         -1.4534   -0.6979    0.0000 CT        1 <0>        0.00000
     14 C8         -1.4534    0.1271    0.0000 CT        1 <0>        0.00000
     15 C9         -0.7390    0.5396    0.0000 CM        1 <0>        0.00000
     16 C10        -0.7390    1.3646    0.0000 CM        1 <0>        0.00000
     17 C11        -0.0245    1.7771    0.0000 CA        1 <0>        0.00000
     18 C12        -0.0245    2.6021    0.0000 CA        1 <0>        0.00000
     19 C13         0.6900    3.0146    0.0000 CA        1 <0>        0.00000
     20 C14         1.4045    2.6021    0.0000 CA        1 <0>        0.00000
     21 C15         1.4045    1.7771    0.0000 CA        1 <0>        0.00000
     22 C16         0.6900    1.3646    0.0000 CA        1 <0>        0.00000
     23 N1         -1.4534   -1.5229    0.0000 N*        1 <0>        0.00000
     24 N2         -0.7860   -2.0079    0.0000 NB        1 <0>        0.00000
     25 N3         -1.0409   -2.7925    0.0000 NB        1 <0>        0.00000
     26 C17        -1.8659   -2.7925    0.0000 CB        1 <0>        0.00000
     27 C18        -2.1209   -2.0079    0.0000 CB        1 <0>        0.00000
     28 C19        -2.9278   -1.8363    0.0000 CA        1 <0>        0.00000
     29 C20        -3.4799   -2.4494    0.0000 CA        1 <0>        0.00000
     30 C21        -3.2249   -3.2341    0.0000 CA        1 <0>        0.00000
     31 C22        -2.4180   -3.4056    0.0000 CA        1 <0>        0.00000
     32 C23        -0.6284   -0.6979    0.0000 CR        1 <0>        0.00000
     33 N4         -0.1435   -1.3654    0.0000 NB        1 <0>        0.00000
     34 C24         0.6411   -1.1104    0.0000 CB        1 <0>        0.00000
     35 C25         0.6411   -0.2854    0.0000 CB        1 <0>        0.00000
     36 S1         -0.1435   -0.0305    0.0000 S         1 <0>        0.00000
     37 C26         1.3556    0.1271    0.0000 CA        1 <0>        0.00000
     38 C27         2.0701   -0.2854    0.0000 CA        1 <0>        0.00000
     39 C28         2.0701   -1.1104    0.0000 CA        1 <0>        0.00000
     40 C29         1.3556   -1.5229    0.0000 CA        1 <0>        0.00000
     41 C30        -3.5159    0.0165    0.0000 CA        1 <0>        0.00000
     42 C31        -3.9284    0.7310    0.0000 CA        1 <0>        0.00000
     43 H1         -4.7534    3.5889    0.0000 HO        1 <0>        0.00000
     44 H2         -5.0554    2.4619    0.0000 HO        1 <0>        0.00000
     45 H3         -2.6909    1.4455    0.0000 HA        1 <0>        0.00000
     46 H4         -2.2784    0.7310    0.0000 HA        1 <0>        0.00000
     47 H5         -2.2784   -0.6979    0.0000 HC        1 <0>        0.00000
     48 H6         -2.2784   -0.6979    0.0000 HC        1 <0>        0.00000
     49 H7         -1.4534    0.1271    0.0000 HC        1 <0>        0.00000
     50 H8         -1.4534    0.1271    0.0000 HC        1 <0>        0.00000
     51 H9         -0.7390    0.5396    0.0000 HA        1 <0>        0.00000
     52 H10        -0.7390    1.3646    0.0000 HA        1 <0>        0.00000
     53 H11        -0.0245    2.6021    0.0000 HA        1 <0>        0.00000
     54 H12         0.6900    3.0146    0.0000 HA        1 <0>        0.00000
     55 H13         1.4045    2.6021    0.0000 HA        1 <0>        0.00000
     56 H14         1.4045    1.7771    0.0000 HA        1 <0>        0.00000
     57 H15         0.6900    1.3646    0.0000 HA        1 <0>        0.00000
     58 H16        -2.9278   -1.8363    0.0000 HA        1 <0>        0.00000
     59 H17        -3.4799   -2.4494    0.0000 HA        1 <0>        0.00000
     60 H18        -3.2249   -3.2341    0.0000 HA        1 <0>        0.00000
     61 H19        -2.4180   -3.4056    0.0000 HA        1 <0>        0.00000
     62 H20         1.3556    0.1271    0.0000 HA        1 <0>        0.00000
     63 H21         2.0701   -0.2854    0.0000 HA        1 <0>        0.00000
     64 H22         2.0701   -1.1104    0.0000 HA        1 <0>        0.00000
     65 H23         1.3556   -1.5229    0.0000 HA        1 <0>        0.00000
     66 H24        -3.5159    0.0165    0.0000 HA        1 <0>        0.00000
     67 H25        -3.9284    0.7310    0.0000 HA        1 <0>        0.00000
@<TRIPOS>BOND
     1    1    2 1
     2    2    3 1
     3    2    4 2
     4    2    5 1
     5    5    6 1
     6    5    7 1
     7    5    8 1
     8    8    9 ar
     9    9   10 ar
    10   10   11 ar
    11   11   12 1
    12   12   13 1
    13   13   14 1
    14   14   15 1
    15   15   16 2
    16   16   17 1
    17   17   18 ar
    18   18   19 ar
    19   19   20 ar
    20   20   21 ar
    21   21   22 ar
    22   17   22 ar
    23   13   23 1
    24   23   24 1
    25   24   25 2
    26   25   26 1
    27   26   27 ar
    28   23   27 1
    29   27   28 ar
    30   28   29 ar
    31   29   30 ar
    32   30   31 ar
    33   26   31 ar
    34   13   32 1
    35   32   33 2
    36   33   34 1
    37   34   35 ar
    38   35   36 1
    39   32   36 1
    40   35   37 ar
    41   37   38 ar
    42   38   39 ar
    43   39   40 ar
    44   34   40 ar
    45   11   41 ar
    46   41   42 ar
    47    8   42 ar
    48    1   43 1
    49    3   44 1
    50    9   45 1
    51   10   46 1
    52   12   47 1
    53   12   48 1
    54   14   49 1
    55   14   50 1
    56   15   51 1
    57   16   52 1
    58   18   53 1
    59   19   54 1
    60   20   55 1
    61   21   56 1
    62   22   57 1
    63   28   58 1
    64   29   59 1
    65   30   60 1
    66   31   61 1
    67   37   62 1
    68   38   63 1
    69   39   64 1
    70   40   65 1
    71   41   66 1
    72   42   67 1
@<TRIPOS>SUBSTRUCTURE
     1 <0>         1 GROUP 0 A     ****
@<TRIPOS>MOLECULE
MiniDrugBank_59
   55    57     1     0     0
SMALL
NO_CHARGES

@<TRIPOS>ATOM
      1 C1          4.2868   -2.4750    0.0000 CT        1 <0>        0.00000
      2 N1          4.2868   -1.6500    0.0000 N3        1 <0>        0.00000
      3 C2          3.5724   -1.2375    0.0000 CT        1 <0>        0.00000
      4 C3          2.8579   -1.6500    0.0000 CT        1 <0>        0.00000
      5 C4          2.1434   -1.2375    0.0000 CT        1 <0>        0.00000
      6 C5          1.4289   -1.6500    0.0000 CT        1 <0>        0.00000
      7 C6          0.7145   -1.2375    0.0000 CT        1 <0>        0.00000
      8 C7          0.0000   -1.6500    0.0000 CT        1 <0>        0.00000
      9 O1         -0.7145   -1.2375    0.0000 OS        1 <0>        0.00000
     10 C8         -1.4289   -1.6500    0.0000 CA        1 <0>        0.00000
     11 C9         -1.4289   -2.4750    0.0000 CA        1 <0>        0.00000
     12 C10        -2.1434   -2.8875    0.0000 CA        1 <0>        0.00000
     13 C11        -2.8579   -2.4750    0.0000 CB        1 <0>        0.00000
     14 C12        -2.8579   -1.6500    0.0000 CB        1 <0>        0.00000
     15 S1         -3.6425   -1.3951    0.0000 S         1 <0>        0.00000
     16 N2         -4.1274   -2.0625    0.0000 NB        1 <0>        0.00000
     17 C13        -3.6425   -2.7299    0.0000 CR        1 <0>        0.00000
     18 C14        -3.8974   -3.5146    0.0000 CA        1 <0>        0.00000
     19 C15        -3.3454   -4.1277    0.0000 CA        1 <0>        0.00000
     20 C16        -3.6004   -4.9123    0.0000 CA        1 <0>        0.00000
     21 C17        -4.4073   -5.0838    0.0000 CA        1 <0>        0.00000
     22 Br1        -4.6623   -5.8684    0.0000 BR        1 <0>        0.00000
     23 C18        -4.9594   -4.4707    0.0000 CA        1 <0>        0.00000
     24 C19        -4.7044   -3.6861    0.0000 CA        1 <0>        0.00000
     25 C20        -2.1434   -1.2375    0.0000 CA        1 <0>        0.00000
     26 C21         5.0013   -1.2375    0.0000 CT        1 <0>        0.00000
     27 C22         5.7158   -1.6500    0.0000 CM        1 <0>        0.00000
     28 C23         6.4302   -1.2375    0.0000 CM        1 <0>        0.00000
     29 H1          4.2868   -2.4750    0.0000 H1        1 <0>        0.00000
     30 H2          4.2868   -2.4750    0.0000 H1        1 <0>        0.00000
     31 H3          4.2868   -2.4750    0.0000 H1        1 <0>        0.00000
     32 H4          3.5724   -1.2375    0.0000 H1        1 <0>        0.00000
     33 H5          3.5724   -1.2375    0.0000 H1        1 <0>        0.00000
     34 H6          2.8579   -1.6500    0.0000 HC        1 <0>        0.00000
     35 H7          2.8579   -1.6500    0.0000 HC        1 <0>        0.00000
     36 H8          2.1434   -1.2375    0.0000 HC        1 <0>        0.00000
     37 H9          2.1434   -1.2375    0.0000 HC        1 <0>        0.00000
     38 H10         1.4289   -1.6500    0.0000 HC        1 <0>        0.00000
     39 H11         1.4289   -1.6500    0.0000 HC        1 <0>        0.00000
     40 H12         0.7145   -1.2375    0.0000 HC        1 <0>        0.00000
     41 H13         0.7145   -1.2375    0.0000 HC        1 <0>        0.00000
     42 H14         0.0000   -1.6500    0.0000 H1        1 <0>        0.00000
     43 H15         0.0000   -1.6500    0.0000 H1        1 <0>        0.00000
     44 H16        -1.4289   -2.4750    0.0000 HA        1 <0>        0.00000
     45 H17        -2.1434   -2.8875    0.0000 HA        1 <0>        0.00000
     46 H18        -3.3454   -4.1277    0.0000 HA        1 <0>        0.00000
     47 H19        -3.6004   -4.9123    0.0000 HA        1 <0>        0.00000
     48 H20        -4.9594   -4.4707    0.0000 HA        1 <0>        0.00000
     49 H21        -4.7044   -3.6861    0.0000 HA        1 <0>        0.00000
     50 H22        -2.1434   -1.2375    0.0000 HA        1 <0>        0.00000
     51 H23         5.0013   -1.2375    0.0000 H1        1 <0>        0.00000
     52 H24         5.0013   -1.2375    0.0000 H1        1 <0>        0.00000
     53 H25         5.7158   -1.6500    0.0000 HA        1 <0>        0.00000
     54 H26         6.4302   -1.2375    0.0000 HA        1 <0>        0.00000
     55 H27         6.4302   -1.2375    0.0000 HA        1 <0>        0.00000
@<TRIPOS>BOND
     1    1    2 1
     2    2    3 1
     3    3    4 1
     4    4    5 1
     5    5    6 1
     6    6    7 1
     7    7    8 1
     8    8    9 1
     9    9   10 1
    10   10   11 ar
    11   11   12 ar
    12   12   13 ar
    13   13   14 ar
    14   14   15 1
    15   15   16 1
    16   16   17 2
    17   13   17 1
    18   17   18 1
    19   18   19 ar
    20   19   20 ar
    21   20   21 ar
    22   21   22 1
    23   21   23 ar
    24   23   24 ar
    25   18   24 ar
    26   14   25 ar
    27   10   25 ar
    28    2   26 1
    29   26   27 1
    30   27   28 2
    31    1   29 1
    32    1   30 1
    33    1   31 1
    34    3   32 1
    35    3   33 1
    36    4   34 1
    37    4   35 1
    38    5   36 1
    39    5   37 1
    40    6   38 1
    41    6   39 1
    42    7   40 1
    43    7   41 1
    44    8   42 1
    45    8   43 1
    46   11   44 1
    47   12   45 1
    48   19   46 1
    49   20   47 1
    50   23   48 1
    51   24   49 1
    52   25   50 1
    53   26   51 1
    54   26   52 1
    55   27   53 1
    56   28   54 1
    57   28   55 1
@<TRIPOS>SUBSTRUCTURE
     1 <0>         1 GROUP 0 A     ****
@<TRIPOS>MOLECULE
MiniDrugBank_60
    7     6     1     0     0
SMALL
NO_CHARGES

@<TRIPOS>ATOM
      1 F1         -0.4125   -0.7145    0.0000 F         1 <0>        0.00000
      2 F2          0.4125    0.7145    0.0000 F         1 <0>        0.00000
      3 F3         -0.4125    0.7145    0.0000 F         1 <0>        0.00000
      4 F4         -0.8250   -0.0000    0.0000 F         1 <0>        0.00000
      5 F5          0.4125   -0.7145    0.0000 F         1 <0>        0.00000
      6 F6          0.8250    0.0000    0.0000 F         1 <0>        0.00000
      7 S1          0.0000    0.0000    0.0000 Su        1 <0>        0.00000
@<TRIPOS>BOND
     1    1    7 1
     2    2    7 1
     3    3    7 1
     4    4    7 1
     5    5    7 1
     6    6    7 1
@<TRIPOS>SUBSTRUCTURE
     1 <0>         1 GROUP 0 A     ****
@<TRIPOS>MOLECULE
MiniDrugBank_61
   20    20     1     0     0
SMALL
NO_CHARGES

@<TRIPOS>ATOM
      1 C1         -0.1467    3.1768    0.0000 CT        1 <0>        0.00000
      2 C2         -0.1467    2.3518    0.0000 CT        1 <0>        0.00000
      3 O1         -0.8612    1.9393    0.0000 OH        1 <0>        0.00000
      4 C3          0.5678    1.9393    0.0000 CT        1 <0>        0.00000
      5 N1          1.2822    2.3518    0.0000 N3        1 <0>        0.00000
      6 C4          0.5678    1.1143    0.0000 CR        1 <0>        0.00000
      7 N2          1.2352    0.6294    0.0000 NB        1 <0>        0.00000
      8 C5          0.9803   -0.1553    0.0000 CC        1 <0>        0.00000
      9 C6          0.1553   -0.1553    0.0000 CW        1 <0>        0.00000
     10 S1         -0.0997    0.6294    0.0000 S         1 <0>        0.00000
     11 H1         -0.1467    3.1768    0.0000 HC        1 <0>        0.00000
     12 H2         -0.1467    3.1768    0.0000 HC        1 <0>        0.00000
     13 H3         -0.1467    3.1768    0.0000 HC        1 <0>        0.00000
     14 H4         -0.1467    2.3518    0.0000 H1        1 <0>        0.00000
     15 H5         -0.8612    1.9393    0.0000 HO        1 <0>        0.00000
     16 H6          0.5678    1.9393    0.0000 H1        1 <0>        0.00000
     17 H7          1.2822    2.3518    0.0000 H         1 <0>        0.00000
     18 H8          1.2822    2.3518    0.0000 H         1 <0>        0.00000
     19 H9          0.9803   -0.1553    0.0000 H4        1 <0>        0.00000
     20 H10         0.1553   -0.1553    0.0000 H4        1 <0>        0.00000
@<TRIPOS>BOND
     1    1    2 1
     2    2    3 1
     3    2    4 1
     4    4    5 1
     5    4    6 1
     6    6    7 2
     7    7    8 1
     8    8    9 2
     9    9   10 1
    10    6   10 1
    11    1   11 1
    12    1   12 1
    13    1   13 1
    14    2   14 1
    15    3   15 1
    16    4   16 1
    17    5   17 1
    18    5   18 1
    19    8   19 1
    20    9   20 1
@<TRIPOS>SUBSTRUCTURE
     1 <0>         1 GROUP 0 A     ****
@<TRIPOS>MOLECULE
775
   66    67     1     0     0
SMALL
NO_CHARGES

@<TRIPOS>ATOM
      1 S1          7.0944    3.3001    0.0000 SO        1 <0>        0.00000
      2 O1          5.6655   -1.6500    0.0000 OS        1 <0>        0.00000
      3 O2          7.5069    2.5856    0.0000 O2        1 <0>        0.00000
      4 O3          6.6819    4.0145    0.0000 O2        1 <0>        0.00000
      5 O4          7.8089    2.0625    0.0000 OH        1 <0>        0.00000
      6 O5          7.0944    0.8250    0.0000 O         1 <0>        0.00000
      7 N1          2.0930   -5.3626    0.0000 N3        1 <0>        0.00000
      8 N2          6.3799    2.8876    0.0000 N3        1 <0>        0.00000
      9 C1          3.5220   -4.5376    0.0000 CT        1 <0>        0.00000
     10 C2          3.5220   -5.3626    0.0000 CT        1 <0>        0.00000
     11 C3          2.8075   -4.1251    0.0000 CT        1 <0>        0.00000
     12 C4          4.2365   -4.1251    0.0000 CT        1 <0>        0.00000
     13 C5          2.8075   -5.7751    0.0000 CT        1 <0>        0.00000
     14 C6          2.0930   -4.5376    0.0000 CT        1 <0>        0.00000
     15 C7          4.2365   -3.3001    0.0000 CT        1 <0>        0.00000
     16 C8          4.9509   -2.8876    0.0000 CT        1 <0>        0.00000
     17 C9          4.9509   -2.0625    0.0000 CT        1 <0>        0.00000
     18 C10         6.3799    2.0625    0.0000 CT        1 <0>        0.00000
     19 C11         5.6655    1.6500    0.0000 CT        1 <0>        0.00000
     20 C12         7.8089    3.7126    0.0000 CT        1 <0>        0.00000
     21 C13         5.6655   -0.8250    0.0000 CA        1 <0>        0.00000
     22 C14         7.8089    4.5376    0.0000 CT        1 <0>        0.00000
     23 C15         5.6655    0.8250    0.0000 CA        1 <0>        0.00000
     24 C16         8.5234    4.9501    0.0000 CT        1 <0>        0.00000
     25 C17         6.3799   -0.4125    0.0000 CA        1 <0>        0.00000
     26 C18         4.9509   -0.4125    0.0000 CA        1 <0>        0.00000
     27 C19         6.3799    0.4125    0.0000 CA        1 <0>        0.00000
     28 C20         4.9509    0.4125    0.0000 CA        1 <0>        0.00000
     29 C21         7.0944    1.6500    0.0000 C         1 <0>        0.00000
     30 C22         8.5234    5.7751    0.0000 CT        1 <0>        0.00000
     31 H1          7.8089    2.0625    0.0000 HO        1 <0>        0.00000
     32 H2          2.0930   -5.3626    0.0000 H         1 <0>        0.00000
     33 H3          6.3799    2.8876    0.0000 H         1 <0>        0.00000
     34 H4          3.5220   -4.5376    0.0000 HC        1 <0>        0.00000
     35 H5          3.5220   -5.3626    0.0000 HC        1 <0>        0.00000
     36 H6          3.5220   -5.3626    0.0000 HC        1 <0>        0.00000
     37 H7          2.8075   -4.1251    0.0000 HC        1 <0>        0.00000
     38 H8          2.8075   -4.1251    0.0000 HC        1 <0>        0.00000
     39 H9          4.2365   -4.1251    0.0000 HC        1 <0>        0.00000
     40 H10         4.2365   -4.1251    0.0000 HC        1 <0>        0.00000
     41 H11         2.8075   -5.7751    0.0000 H1        1 <0>        0.00000
     42 H12         2.8075   -5.7751    0.0000 H1        1 <0>        0.00000
     43 H13         2.0930   -4.5376    0.0000 H1        1 <0>        0.00000
     44 H14         2.0930   -4.5376    0.0000 H1        1 <0>        0.00000
     45 H15         4.2365   -3.3001    0.0000 HC        1 <0>        0.00000
     46 H16         4.2365   -3.3001    0.0000 HC        1 <0>        0.00000
     47 H17         4.9509   -2.8876    0.0000 HC        1 <0>        0.00000
     48 H18         4.9509   -2.8876    0.0000 HC        1 <0>        0.00000
     49 H19         4.9509   -2.0625    0.0000 H1        1 <0>        0.00000
     50 H20         4.9509   -2.0625    0.0000 H1        1 <0>        0.00000
     51 H21         6.3799    2.0625    0.0000 H1        1 <0>        0.00000
     52 H22         5.6655    1.6500    0.0000 HC        1 <0>        0.00000
     53 H23         5.6655    1.6500    0.0000 HC        1 <0>        0.00000
     54 H24         7.8089    3.7126    0.0000 H1        1 <0>        0.00000
     55 H25         7.8089    3.7126    0.0000 H1        1 <0>        0.00000
     56 H26         7.8089    4.5376    0.0000 HC        1 <0>        0.00000
     57 H27         7.8089    4.5376    0.0000 HC        1 <0>        0.00000
     58 H28         8.5234    4.9501    0.0000 HC        1 <0>        0.00000
     59 H29         8.5234    4.9501    0.0000 HC        1 <0>        0.00000
     60 H30         6.3799   -0.4125    0.0000 HA        1 <0>        0.00000
     61 H31         4.9509   -0.4125    0.0000 HA        1 <0>        0.00000
     62 H32         6.3799    0.4125    0.0000 HA        1 <0>        0.00000
     63 H33         4.9509    0.4125    0.0000 HA        1 <0>        0.00000
     64 H34         8.5234    5.7751    0.0000 HC        1 <0>        0.00000
     65 H35         8.5234    5.7751    0.0000 HC        1 <0>        0.00000
     66 H36         8.5234    5.7751    0.0000 HC        1 <0>        0.00000
@<TRIPOS>BOND
     1    1    3 2
     2    1    4 2
     3    1    8 1
     4    1   20 1
     5    2   17 1
     6    2   21 1
     7    5   29 1
     8    6   29 2
     9    7   13 1
    10    7   14 1
    11    8   18 1
    12    9   10 1
    13    9   11 1
    14    9   12 1
    15   10   13 1
    16   11   14 1
    17   12   15 1
    18   15   16 1
    19   16   17 1
    20   18   19 1
    21   18   29 1
    22   19   23 1
    23   20   22 1
    24   21   25 ar
    25   21   26 ar
    26   22   24 1
    27   23   27 ar
    28   23   28 ar
    29   24   30 1
    30   25   27 ar
    31   26   28 ar
    32    5   31 1
    33    7   32 1
    34    8   33 1
    35    9   34 1
    36   10   35 1
    37   10   36 1
    38   11   37 1
    39   11   38 1
    40   12   39 1
    41   12   40 1
    42   13   41 1
    43   13   42 1
    44   14   43 1
    45   14   44 1
    46   15   45 1
    47   15   46 1
    48   16   47 1
    49   16   48 1
    50   17   49 1
    51   17   50 1
    52   18   51 1
    53   19   52 1
    54   19   53 1
    55   20   54 1
    56   20   55 1
    57   22   56 1
    58   22   57 1
    59   24   58 1
    60   24   59 1
    61   25   60 1
    62   26   61 1
    63   27   62 1
    64   28   63 1
    65   30   64 1
    66   30   65 1
    67   30   66 1
@<TRIPOS>SUBSTRUCTURE
     1 <0>         1 GROUP 0 A     ****
@<TRIPOS>MOLECULE
236
   32    32     1     0     0
SMALL
NO_CHARGES

@<TRIPOS>ATOM
      1 Br1         1.6500   -3.3000    0.0000 BR        1 <0>        0.00000
      2 Br2         4.5079    3.3000    0.0000 BR        1 <0>        0.00000
      3 O1          3.7935   -2.0625    0.0000 O         1 <0>        0.00000
      4 O2          2.3645    2.0625    0.0000 O         1 <0>        0.00000
      5 N1          3.0790   -0.8250    0.0000 N         1 <0>        0.00000
      6 N2          3.0790    0.8250    0.0000 N         1 <0>        0.00000
      7 C1          3.7935   -0.4125    0.0000 CT        1 <0>        0.00000
      8 C2          2.3645   -0.4125    0.0000 CT        1 <0>        0.00000
      9 C3          3.7935    0.4125    0.0000 CT        1 <0>        0.00000
     10 C4          2.3645    0.4125    0.0000 CT        1 <0>        0.00000
     11 C5          3.0790   -1.6500    0.0000 C         1 <0>        0.00000
     12 C6          3.0790    1.6500    0.0000 C         1 <0>        0.00000
     13 C7          2.3645   -2.0625    0.0000 CT        1 <0>        0.00000
     14 C8          3.7935    2.0625    0.0000 CT        1 <0>        0.00000
     15 C9          2.3645   -2.8875    0.0000 CT        1 <0>        0.00000
     16 C10         3.7935    2.8875    0.0000 CT        1 <0>        0.00000
     17 H1          3.7935   -0.4125    0.0000 H1        1 <0>        0.00000
     18 H2          3.7935   -0.4125    0.0000 H1        1 <0>        0.00000
     19 H3          2.3645   -0.4125    0.0000 H1        1 <0>        0.00000
     20 H4          2.3645   -0.4125    0.0000 H1        1 <0>        0.00000
     21 H5          3.7935    0.4125    0.0000 H1        1 <0>        0.00000
     22 H6          3.7935    0.4125    0.0000 H1        1 <0>        0.00000
     23 H7          2.3645    0.4125    0.0000 H1        1 <0>        0.00000
     24 H8          2.3645    0.4125    0.0000 H1        1 <0>        0.00000
     25 H9          2.3645   -2.0625    0.0000 HC        1 <0>        0.00000
     26 H10         2.3645   -2.0625    0.0000 HC        1 <0>        0.00000
     27 H11         3.7935    2.0625    0.0000 HC        1 <0>        0.00000
     28 H12         3.7935    2.0625    0.0000 HC        1 <0>        0.00000
     29 H13         2.3645   -2.8875    0.0000 H1        1 <0>        0.00000
     30 H14         2.3645   -2.8875    0.0000 H1        1 <0>        0.00000
     31 H15         3.7935    2.8875    0.0000 H1        1 <0>        0.00000
     32 H16         3.7935    2.8875    0.0000 H1        1 <0>        0.00000
@<TRIPOS>BOND
     1    1   15 1
     2    2   16 1
     3    3   11 2
     4    4   12 2
     5    5    7 1
     6    5    8 1
     7    5   11 am
     8    6    9 1
     9    6   10 1
    10    6   12 am
    11    7    9 1
    12    8   10 1
    13   11   13 1
    14   12   14 1
    15   13   15 1
    16   14   16 1
    17    7   17 1
    18    7   18 1
    19    8   19 1
    20    8   20 1
    21    9   21 1
    22    9   22 1
    23   10   23 1
    24   10   24 1
    25   13   25 1
    26   13   26 1
    27   14   27 1
    28   14   28 1
    29   15   29 1
    30   15   30 1
    31   16   31 1
    32   16   32 1
@<TRIPOS>SUBSTRUCTURE
     1 <0>         1 GROUP 0 A     ****
@<TRIPOS>MOLECULE
MiniDrugBank_64
    8     7     1     0     0
SMALL
NO_CHARGES

@<TRIPOS>ATOM
      1 Cl1         2.0625   -0.7145    0.0000 CL        1 <0>        0.00000
      2 C1          1.2375   -0.7145    0.0000 CT        1 <0>        0.00000
      3 C2          0.8250    0.0000    0.0000 CT        1 <0>        0.00000
      4 Cl2         0.0000    0.0000    0.0000 CL        1 <0>        0.00000
      5 H1          1.2375   -0.7145    0.0000 H1        1 <0>        0.00000
      6 H2          1.2375   -0.7145    0.0000 H1        1 <0>        0.00000
      7 H3          0.8250    0.0000    0.0000 H1        1 <0>        0.00000
      8 H4          0.8250    0.0000    0.0000 H1        1 <0>        0.00000
@<TRIPOS>BOND
     1    1    2 1
     2    2    3 1
     3    3    4 1
     4    2    5 1
     5    2    6 1
     6    3    7 1
     7    3    8 1
@<TRIPOS>SUBSTRUCTURE
     1 <0>         1 GROUP 0 A     ****
@<TRIPOS>MOLECULE
1361
  124   127     1     0     0
SMALL
NO_CHARGES

@<TRIPOS>ATOM
      1 O1          5.5245   -2.9833    0.0000 OS        1 <0>        0.00000
      2 O2          8.0804   -1.0313    0.0000 OS        1 <0>        0.00000
      3 O3          6.6515    1.4438    0.0000 OS        1 <0>        0.00000
      4 O4          7.3659   -2.2688    0.0000 OS        1 <0>        0.00000
      5 O5          5.2224   -1.0313    0.0000 O         1 <0>        0.00000
      6 O6          3.0791   -2.2688    0.0000 OS        1 <0>        0.00000
      7 O7          4.5080    0.2063    0.0000 OS        1 <0>        0.00000
      8 O8          9.5094   -1.8563    0.0000 OS        1 <0>        0.00000
      9 O9          7.3659    2.6813    0.0000 OS        1 <0>        0.00000
     10 O10         5.2224    1.4438    0.0000 O         1 <0>        0.00000
     11 O11         9.5094    1.4438    0.0000 OS        1 <0>        0.00000
     12 O12         9.5094    3.0938    0.0000 OS        1 <0>        0.00000
     13 O13         2.3645   -1.0313    0.0000 O         1 <0>        0.00000
     14 O14         8.7949   -0.6188    0.0000 O         1 <0>        0.00000
     15 O15         8.7949    4.3313    0.0000 O         1 <0>        0.00000
     16 N1          9.5094   -3.5063    0.0000 N3        1 <0>        0.00000
     17 C1          5.9370   -2.2688    0.0000 CJ        1 <0>        0.00000
     18 C2          6.6515   -1.8563    0.0000 CT        1 <0>        0.00000
     19 C3          6.6515   -1.0313    0.0000 CT        1 <0>        0.00000
     20 C4          7.3659   -0.6188    0.0000 CT        1 <0>        0.00000
     21 C5          6.3495   -2.9833    0.0000 CJ        1 <0>        0.00000
     22 C6          7.3659    0.2063    0.0000 CT        1 <0>        0.00000
     23 C7          5.2224   -1.8563    0.0000 C         1 <0>        0.00000
     24 C8          6.6515    0.6188    0.0000 CT        1 <0>        0.00000
     25 C9          4.5080   -2.2688    0.0000 CT        1 <0>        0.00000
     26 C10         5.9370   -0.6188    0.0000 CT        1 <0>        0.00000
     27 C11         3.7935   -1.8563    0.0000 CT        1 <0>        0.00000
     28 C12         5.9370    0.2063    0.0000 CT        1 <0>        0.00000
     29 C13         8.0804   -1.8563    0.0000 CT        1 <0>        0.00000
     30 C14         8.0804    0.6188    0.0000 CT        1 <0>        0.00000
     31 C15         3.7935   -1.0313    0.0000 CT        1 <0>        0.00000
     32 C16         8.7949   -2.2688    0.0000 CT        1 <0>        0.00000
     33 C17         8.7949   -3.0938    0.0000 CT        1 <0>        0.00000
     34 C18         4.5080   -3.0938    0.0000 CT        1 <0>        0.00000
     35 C19         4.5080   -0.6188    0.0000 CT        1 <0>        0.00000
     36 C20         8.0804   -3.5063    0.0000 CT        1 <0>        0.00000
     37 C21         7.3659   -3.0938    0.0000 CT        1 <0>        0.00000
     38 C22         7.3659    1.8563    0.0000 CT        1 <0>        0.00000
     39 C23         5.2224    0.6188    0.0000 C         1 <0>        0.00000
     40 C24         5.2225   -0.2063    0.0000 CT        1 <0>        0.00000
     41 C25         3.0791   -0.6188    0.0000 CT        1 <0>        0.00000
     42 C26         8.0804    1.4438    0.0000 CT        1 <0>        0.00000
     43 C27         8.7949    1.8563    0.0000 CT        1 <0>        0.00000
     44 C28         8.7949    2.6813    0.0000 CT        1 <0>        0.00000
     45 C29         8.0804    3.0938    0.0000 CT        1 <0>        0.00000
     46 C30         4.5080   -1.4438    0.0000 CT        1 <0>        0.00000
     47 C31         6.6515   -3.5063    0.0000 CT        1 <0>        0.00000
     48 C32        10.2239   -3.0938    0.0000 CT        1 <0>        0.00000
     49 C33         9.5094   -4.3313    0.0000 CT        1 <0>        0.00000
     50 C34         2.3645   -1.8563    0.0000 C         1 <0>        0.00000
     51 C35         8.0804    3.9188    0.0000 CT        1 <0>        0.00000
     52 C36         9.5094   -1.0313    0.0000 C         1 <0>        0.00000
     53 C37         1.6500   -2.2688    0.0000 CT        1 <0>        0.00000
     54 C38        10.2239    1.8563    0.0000 CT        1 <0>        0.00000
     55 C39        10.2239   -0.6188    0.0000 CT        1 <0>        0.00000
     56 C40         9.5094    3.9188    0.0000 C         1 <0>        0.00000
     57 C41        10.2239    4.3313    0.0000 CT        1 <0>        0.00000
     58 H1          6.6515   -1.8563    0.0000 HC        1 <0>        0.00000
     59 H2          6.6515   -1.8563    0.0000 HC        1 <0>        0.00000
     60 H3          6.6515   -1.0313    0.0000 HC        1 <0>        0.00000
     61 H4          7.3659   -0.6188    0.0000 H1        1 <0>        0.00000
     62 H5          6.3495   -2.9833    0.0000 H1        1 <0>        0.00000
     63 H6          6.3495   -2.9833    0.0000 H1        1 <0>        0.00000
     64 H7          7.3659    0.2063    0.0000 HC        1 <0>        0.00000
     65 H8          6.6515    0.6188    0.0000 H1        1 <0>        0.00000
     66 H9          4.5080   -2.2688    0.0000 HC        1 <0>        0.00000
     67 H10         5.9370   -0.6188    0.0000 HC        1 <0>        0.00000
     68 H11         5.9370   -0.6188    0.0000 HC        1 <0>        0.00000
     69 H12         5.9370   -0.6188    0.0000 HC        1 <0>        0.00000
     70 H13         3.7935   -1.8563    0.0000 H1        1 <0>        0.00000
     71 H14         5.9370    0.2063    0.0000 HC        1 <0>        0.00000
     72 H15         8.0804   -1.8563    0.0000 H2        1 <0>        0.00000
     73 H16         8.0804    0.6188    0.0000 HC        1 <0>        0.00000
     74 H17         8.0804    0.6188    0.0000 HC        1 <0>        0.00000
     75 H18         8.0804    0.6188    0.0000 HC        1 <0>        0.00000
     76 H19         3.7935   -1.0313    0.0000 HC        1 <0>        0.00000
     77 H20         8.7949   -2.2688    0.0000 H1        1 <0>        0.00000
     78 H21         8.7949   -3.0938    0.0000 H1        1 <0>        0.00000
     79 H22         4.5080   -3.0938    0.0000 HC        1 <0>        0.00000
     80 H23         4.5080   -3.0938    0.0000 HC        1 <0>        0.00000
     81 H24         4.5080   -3.0938    0.0000 HC        1 <0>        0.00000
     82 H25         4.5080   -0.6188    0.0000 H1        1 <0>        0.00000
     83 H26         8.0804   -3.5063    0.0000 HC        1 <0>        0.00000
     84 H27         8.0804   -3.5063    0.0000 HC        1 <0>        0.00000
     85 H28         7.3659   -3.0938    0.0000 H1        1 <0>        0.00000
     86 H29         7.3659    1.8563    0.0000 H2        1 <0>        0.00000
     87 H30         5.2225   -0.2063    0.0000 HC        1 <0>        0.00000
     88 H31         5.2225   -0.2063    0.0000 HC        1 <0>        0.00000
     89 H32         5.2225   -0.2063    0.0000 HC        1 <0>        0.00000
     90 H33         3.0791   -0.6188    0.0000 HC        1 <0>        0.00000
     91 H34         3.0791   -0.6188    0.0000 HC        1 <0>        0.00000
     92 H35         3.0791   -0.6188    0.0000 HC        1 <0>        0.00000
     93 H36         8.0804    1.4438    0.0000 HC        1 <0>        0.00000
     94 H37         8.0804    1.4438    0.0000 HC        1 <0>        0.00000
     95 H38         8.7949    1.8563    0.0000 H1        1 <0>        0.00000
     96 H39         8.7949    2.6813    0.0000 H1        1 <0>        0.00000
     97 H40         8.0804    3.0938    0.0000 H1        1 <0>        0.00000
     98 H41         4.5080   -1.4438    0.0000 HC        1 <0>        0.00000
     99 H42         4.5080   -1.4438    0.0000 HC        1 <0>        0.00000
    100 H43         4.5080   -1.4438    0.0000 HC        1 <0>        0.00000
    101 H44         6.6515   -3.5063    0.0000 HC        1 <0>        0.00000
    102 H45         6.6515   -3.5063    0.0000 HC        1 <0>        0.00000
    103 H46         6.6515   -3.5063    0.0000 HC        1 <0>        0.00000
    104 H47        10.2239   -3.0938    0.0000 H1        1 <0>        0.00000
    105 H48        10.2239   -3.0938    0.0000 H1        1 <0>        0.00000
    106 H49        10.2239   -3.0938    0.0000 H1        1 <0>        0.00000
    107 H50         9.5094   -4.3313    0.0000 H1        1 <0>        0.00000
    108 H51         9.5094   -4.3313    0.0000 H1        1 <0>        0.00000
    109 H52         9.5094   -4.3313    0.0000 H1        1 <0>        0.00000
    110 H53         8.0804    3.9188    0.0000 HC        1 <0>        0.00000
    111 H54         8.0804    3.9188    0.0000 HC        1 <0>        0.00000
    112 H55         8.0804    3.9188    0.0000 HC        1 <0>        0.00000
    113 H56         1.6500   -2.2688    0.0000 HC        1 <0>        0.00000
    114 H57         1.6500   -2.2688    0.0000 HC        1 <0>        0.00000
    115 H58         1.6500   -2.2688    0.0000 HC        1 <0>        0.00000
    116 H59        10.2239    1.8563    0.0000 H1        1 <0>        0.00000
    117 H60        10.2239    1.8563    0.0000 H1        1 <0>        0.00000
    118 H61        10.2239    1.8563    0.0000 H1        1 <0>        0.00000
    119 H62        10.2239   -0.6188    0.0000 HC        1 <0>        0.00000
    120 H63        10.2239   -0.6188    0.0000 HC        1 <0>        0.00000
    121 H64        10.2239   -0.6188    0.0000 HC        1 <0>        0.00000
    122 H65        10.2239    4.3313    0.0000 HC        1 <0>        0.00000
    123 H66        10.2239    4.3313    0.0000 HC        1 <0>        0.00000
    124 H67        10.2239    4.3313    0.0000 HC        1 <0>        0.00000
@<TRIPOS>BOND
     1    1   17 1
     2    1   21 1
     3    2   20 1
     4    2   29 1
     5    3   24 1
     6    3   38 1
     7    4   29 1
     8    4   37 1
     9    5   23 2
    10    6   27 1
    11    6   50 1
    12    7   35 1
    13    7   39 1
    14    8   32 1
    15    8   52 1
    16    9   38 1
    17    9   45 1
    18   10   39 2
    19   11   43 1
    20   11   54 1
    21   12   44 1
    22   12   56 1
    23   13   50 2
    24   14   52 2
    25   15   56 2
    26   16   33 1
    27   16   48 1
    28   16   49 1
    29   17   18 1
    30   17   21 1
    31   17   23 1
    32   18   19 1
    33   19   20 1
    34   19   26 1
    35   20   22 1
    36   22   24 1
    37   22   30 1
    38   23   25 1
    39   24   28 1
    40   25   27 1
    41   25   34 1
    42   27   31 1
    43   28   39 1
    44   28   40 1
    45   29   32 1
    46   31   35 1
    47   31   41 1
    48   32   33 1
    49   33   36 1
    50   35   46 1
    51   36   37 1
    52   37   47 1
    53   38   42 1
    54   42   43 1
    55   43   44 1
    56   44   45 1
    57   45   51 1
    58   50   53 1
    59   52   55 1
    60   56   57 1
    61   18   58 1
    62   18   59 1
    63   19   60 1
    64   20   61 1
    65   21   62 1
    66   21   63 1
    67   22   64 1
    68   24   65 1
    69   25   66 1
    70   26   67 1
    71   26   68 1
    72   26   69 1
    73   27   70 1
    74   28   71 1
    75   29   72 1
    76   30   73 1
    77   30   74 1
    78   30   75 1
    79   31   76 1
    80   32   77 1
    81   33   78 1
    82   34   79 1
    83   34   80 1
    84   34   81 1
    85   35   82 1
    86   36   83 1
    87   36   84 1
    88   37   85 1
    89   38   86 1
    90   40   87 1
    91   40   88 1
    92   40   89 1
    93   41   90 1
    94   41   91 1
    95   41   92 1
    96   42   93 1
    97   42   94 1
    98   43   95 1
    99   44   96 1
   100   45   97 1
   101   46   98 1
   102   46   99 1
   103   46  100 1
   104   47  101 1
   105   47  102 1
   106   47  103 1
   107   48  104 1
   108   48  105 1
   109   48  106 1
   110   49  107 1
   111   49  108 1
   112   49  109 1
   113   51  110 1
   114   51  111 1
   115   51  112 1
   116   53  113 1
   117   53  114 1
   118   53  115 1
   119   54  116 1
   120   54  117 1
   121   54  118 1
   122   55  119 1
   123   55  120 1
   124   55  121 1
   125   57  122 1
   126   57  123 1
   127   57  124 1
@<TRIPOS>SUBSTRUCTURE
     1 <0>         1 GROUP 0 A     ****
@<TRIPOS>MOLECULE
MiniDrugBank_66
   38    37     1     0     0
SMALL
NO_CHARGES

@<TRIPOS>ATOM
      1 C1          5.8224    1.0711    0.0000 CT        1 <0>        0.00000
      2 C2          6.1286    1.8372    0.0000 CT        1 <0>        0.00000
      3 C3          6.4348    2.6033    0.0000 CT        1 <0>        0.00000
      4 C4          5.3625    2.1434    0.0000 CT        1 <0>        0.00000
      5 O1          4.7143    1.6331    0.0000 OH        1 <0>        0.00000
      6 C5          6.8946    1.5310    0.0000 CT        1 <0>        0.00000
      7 O2          7.0125    0.7145    0.0000 OH        1 <0>        0.00000
      8 C6          7.5429    2.0413    0.0000 C         1 <0>        0.00000
      9 O3          7.4250    2.8579    0.0000 O         1 <0>        0.00000
     10 N1          8.3089    1.7351    0.0000 N         1 <0>        0.00000
     11 C7          8.9571    2.2455    0.0000 CT        1 <0>        0.00000
     12 C8          9.7232    1.9393    0.0000 CT        1 <0>        0.00000
     13 C9         10.3714    2.4496    0.0000 C         1 <0>        0.00000
     14 O4         10.2536    3.2662    0.0000 O         1 <0>        0.00000
     15 N2         11.1375    2.1434    0.0000 N         1 <0>        0.00000
     16 C10        11.7857    2.6537    0.0000 CM        1 <0>        0.00000
     17 C11        12.5518    2.3475    0.0000 CM        1 <0>        0.00000
     18 S1         13.2000    2.8579    0.0000 SH        1 <0>        0.00000
     19 H1          5.8224    1.0711    0.0000 HC        1 <0>        0.00000
     20 H2          5.8224    1.0711    0.0000 HC        1 <0>        0.00000
     21 H3          5.8224    1.0711    0.0000 HC        1 <0>        0.00000
     22 H4          6.4348    2.6033    0.0000 HC        1 <0>        0.00000
     23 H5          6.4348    2.6033    0.0000 HC        1 <0>        0.00000
     24 H6          6.4348    2.6033    0.0000 HC        1 <0>        0.00000
     25 H7          5.3625    2.1434    0.0000 H1        1 <0>        0.00000
     26 H8          5.3625    2.1434    0.0000 H1        1 <0>        0.00000
     27 H9          4.7143    1.6331    0.0000 HO        1 <0>        0.00000
     28 H10         6.8946    1.5310    0.0000 H1        1 <0>        0.00000
     29 H11         7.0125    0.7145    0.0000 HO        1 <0>        0.00000
     30 H12         8.3089    1.7351    0.0000 H         1 <0>        0.00000
     31 H13         8.9571    2.2455    0.0000 H1        1 <0>        0.00000
     32 H14         8.9571    2.2455    0.0000 H1        1 <0>        0.00000
     33 H15         9.7232    1.9393    0.0000 HC        1 <0>        0.00000
     34 H16         9.7232    1.9393    0.0000 HC        1 <0>        0.00000
     35 H17        11.1375    2.1434    0.0000 H         1 <0>        0.00000
     36 H18        11.7857    2.6537    0.0000 H4        1 <0>        0.00000
     37 H19        12.5518    2.3475    0.0000 H4        1 <0>        0.00000
     38 H20        13.2000    2.8579    0.0000 HS        1 <0>        0.00000
@<TRIPOS>BOND
     1    1    2 1
     2    2    3 1
     3    2    4 1
     4    4    5 1
     5    2    6 1
     6    6    7 1
     7    6    8 1
     8    8    9 2
     9    8   10 am
    10   10   11 1
    11   11   12 1
    12   12   13 1
    13   13   14 2
    14   13   15 am
    15   15   16 1
    16   16   17 2
    17   17   18 1
    18    1   19 1
    19    1   20 1
    20    1   21 1
    21    3   22 1
    22    3   23 1
    23    3   24 1
    24    4   25 1
    25    4   26 1
    26    5   27 1
    27    6   28 1
    28    7   29 1
    29   10   30 1
    30   11   31 1
    31   11   32 1
    32   12   33 1
    33   12   34 1
    34   15   35 1
    35   16   36 1
    36   17   37 1
    37   18   38 1
@<TRIPOS>SUBSTRUCTURE
     1 <0>         1 GROUP 0 A     ****
@<TRIPOS>MOLECULE
246
   49    53     1     0     0
SMALL
NO_CHARGES

@<TRIPOS>ATOM
      1 Cl1         5.8073    3.0921    0.0000 CL        1 <0>        0.00000
      2 S1          1.6500   -1.3068    0.0000 S         1 <0>        0.00000
      3 O1         10.0379    2.2671    0.0000 O         1 <0>        0.00000
      4 N1          5.0928    0.2045    0.0000 N3        1 <0>        0.00000
      5 N2          3.6638   -0.6205    0.0000 N3        1 <0>        0.00000
      6 N3          2.2004   -0.6988    0.0000 NB        1 <0>        0.00000
      7 N4          8.7314    2.9310    0.0000 N         1 <0>        0.00000
      8 C1          5.0928   -0.6205    0.0000 CT        1 <0>        0.00000
      9 C2          4.3783    0.6170    0.0000 CT        1 <0>        0.00000
     10 C3          4.3783   -1.0330    0.0000 CT        1 <0>        0.00000
     11 C4          3.6638    0.2045    0.0000 CT        1 <0>        0.00000
     12 C5          5.8073    0.6170    0.0000 CT        1 <0>        0.00000
     13 C6          5.8073    1.4420    0.0000 CT        1 <0>        0.00000
     14 C7          2.9494   -1.0330    0.0000 CR        1 <0>        0.00000
     15 C8          6.5218    1.8546    0.0000 CA        1 <0>        0.00000
     16 C9          2.8643   -1.8488    0.0000 CB        1 <0>        0.00000
     17 C10         7.9507    1.8546    0.0000 CA        1 <0>        0.00000
     18 C11         7.2362    1.4420    0.0000 CA        1 <0>        0.00000
     19 C12         7.9507    2.6796    0.0000 CA        1 <0>        0.00000
     20 C13         6.5218    2.6796    0.0000 CA        1 <0>        0.00000
     21 C14         8.7314    1.6031    0.0000 CT        1 <0>        0.00000
     22 C15         2.0570   -2.0189    0.0000 CB        1 <0>        0.00000
     23 C16         7.2362    3.0921    0.0000 CA        1 <0>        0.00000
     24 C17         9.2129    2.2671    0.0000 C         1 <0>        0.00000
     25 C18         3.4153   -2.4628    0.0000 CA        1 <0>        0.00000
     26 C19         1.8007   -2.8031    0.0000 CA        1 <0>        0.00000
     27 C20         3.1590   -3.2470    0.0000 CA        1 <0>        0.00000
     28 C21         2.3517   -3.4171    0.0000 CA        1 <0>        0.00000
     29 H1          8.7314    2.9310    0.0000 H         1 <0>        0.00000
     30 H2          5.0928   -0.6205    0.0000 H1        1 <0>        0.00000
     31 H3          5.0928   -0.6205    0.0000 H1        1 <0>        0.00000
     32 H4          4.3783    0.6170    0.0000 H1        1 <0>        0.00000
     33 H5          4.3783    0.6170    0.0000 H1        1 <0>        0.00000
     34 H6          4.3783   -1.0330    0.0000 H1        1 <0>        0.00000
     35 H7          4.3783   -1.0330    0.0000 H1        1 <0>        0.00000
     36 H8          3.6638    0.2045    0.0000 H1        1 <0>        0.00000
     37 H9          3.6638    0.2045    0.0000 H1        1 <0>        0.00000
     38 H10         5.8073    0.6170    0.0000 H1        1 <0>        0.00000
     39 H11         5.8073    0.6170    0.0000 H1        1 <0>        0.00000
     40 H12         5.8073    1.4420    0.0000 HC        1 <0>        0.00000
     41 H13         5.8073    1.4420    0.0000 HC        1 <0>        0.00000
     42 H14         7.2362    1.4420    0.0000 HA        1 <0>        0.00000
     43 H15         8.7314    1.6031    0.0000 HC        1 <0>        0.00000
     44 H16         8.7314    1.6031    0.0000 HC        1 <0>        0.00000
     45 H17         7.2362    3.0921    0.0000 HA        1 <0>        0.00000
     46 H18         3.4153   -2.4628    0.0000 HA        1 <0>        0.00000
     47 H19         1.8007   -2.8031    0.0000 HA        1 <0>        0.00000
     48 H20         3.1590   -3.2470    0.0000 HA        1 <0>        0.00000
     49 H21         2.3517   -3.4171    0.0000 HA        1 <0>        0.00000
@<TRIPOS>BOND
     1    1   20 1
     2    2    6 1
     3    2   22 1
     4    3   24 2
     5    4    8 1
     6    4    9 1
     7    4   12 1
     8    5   10 1
     9    5   11 1
    10    5   14 1
    11    6   14 2
    12    7   19 1
    13    7   24 am
    14    8   10 1
    15    9   11 1
    16   12   13 1
    17   13   15 1
    18   14   16 1
    19   15   18 ar
    20   15   20 ar
    21   16   22 ar
    22   16   25 ar
    23   17   18 ar
    24   17   19 ar
    25   17   21 1
    26   19   23 ar
    27   20   23 ar
    28   21   24 1
    29   22   26 ar
    30   25   27 ar
    31   26   28 ar
    32   27   28 ar
    33    7   29 1
    34    8   30 1
    35    8   31 1
    36    9   32 1
    37    9   33 1
    38   10   34 1
    39   10   35 1
    40   11   36 1
    41   11   37 1
    42   12   38 1
    43   12   39 1
    44   13   40 1
    45   13   41 1
    46   18   42 1
    47   21   43 1
    48   21   44 1
    49   23   45 1
    50   25   46 1
    51   26   47 1
    52   27   48 1
    53   28   49 1
@<TRIPOS>SUBSTRUCTURE
     1 <0>         1 GROUP 0 A     ****
@<TRIPOS>MOLECULE
MiniDrugBank_68
  104   110     1     0     0
SMALL
NO_CHARGES

@<TRIPOS>ATOM
      1 C1          8.2225   -6.5717    0.0000 CM        1 <0>        0.00000
      2 C2          3.5954   -5.0748    0.0000 CT        1 <0>        0.00000
      3 C3          2.9555   -4.0992    0.0000 CT        1 <0>        0.00000
      4 C4          4.5710   -4.4350    0.0000 CT        1 <0>        0.00000
      5 C5         11.4300   -2.4900    0.0000 CT        1 <0>        0.00000
      6 C6          7.5882   -6.0441    0.0000 CM        1 <0>        0.00000
      7 C7          5.3861    0.0301    0.0000 CT        1 <0>        0.00000
      8 C8          4.6027   -0.2284    0.0000 CT        1 <0>        0.00000
      9 C9          6.0017   -0.5192    0.0000 CT        1 <0>        0.00000
     10 C10         4.4348   -1.0361    0.0000 CT        1 <0>        0.00000
     11 C11         6.7852   -0.2607    0.0000 CT        1 <0>        0.00000
     12 C12        10.1988   -1.3915    0.0000 CA        1 <0>        0.00000
     13 C13         3.3479   -8.2311    0.0000 CJ        1 <0>        0.00000
     14 C14         4.1701   -8.2994    0.0000 CJ        1 <0>        0.00000
     15 C15         9.5833   -0.8423    0.0000 CA        1 <0>        0.00000
     16 C16         2.8679   -1.5531    0.0000 CJ        1 <0>        0.00000
     17 C17         9.2475   -2.4577    0.0000 CA        1 <0>        0.00000
     18 C18         6.6972   -3.3965    0.0000 CT        1 <0>        0.00000
     19 C19         6.2866   -6.9639    0.0000 CJ        1 <0>        0.00000
     20 C20         5.4980   -2.9424    0.0000 CT        1 <0>        0.00000
     21 C21         3.6513   -1.2946    0.0000 CJ        1 <0>        0.00000
     22 C22         6.8142   -6.3296    0.0000 CJ        1 <0>        0.00000
     23 C23        10.0309   -2.1993    0.0000 CA        1 <0>        0.00000
     24 C24         6.2815   -2.6839    0.0000 CT        1 <0>        0.00000
     25 C25         3.8182   -7.5532    0.0000 CJ        1 <0>        0.00000
     26 C26         8.7998   -1.1007    0.0000 CB        1 <0>        0.00000
     27 C27         7.4007   -0.8100    0.0000 CA        1 <0>        0.00000
     28 C28         8.6319   -1.9085    0.0000 CB        1 <0>        0.00000
     29 C29         6.1480   -4.0121    0.0000 CT        1 <0>        0.00000
     30 C30         3.4834   -2.1023    0.0000 CJ        1 <0>        0.00000
     31 C31         3.9311   -3.4593    0.0000 CT        1 <0>        0.00000
     32 C32         6.3649   -4.8080    0.0000 C         1 <0>        0.00000
     33 C33         7.2329   -1.6177    0.0000 CA        1 <0>        0.00000
     34 C34         4.5467   -4.0086    0.0000 C         1 <0>        0.00000
     35 C35         5.1789   -6.1215    0.0000 C         1 <0>        0.00000
     36 C36         2.5321   -3.1685    0.0000 C         1 <0>        0.00000
     37 C37         3.7632   -4.2671    0.0000 CT        1 <0>        0.00000
     38 C38         6.0011   -6.1899    0.0000 CJ        1 <0>        0.00000
     39 N1          8.1842   -0.5515    0.0000 NC        1 <0>        0.00000
     40 N2          7.8484   -2.1670    0.0000 NC        1 <0>        0.00000
     41 N3          3.1477   -3.7178    0.0000 NB        1 <0>        0.00000
     42 N4          5.7841   -5.3939    0.0000 NB        1 <0>        0.00000
     43 N5          4.7087   -6.7994    0.0000 NB        1 <0>        0.00000
     44 N6          5.3302   -3.7501    0.0000 N         1 <0>        0.00000
     45 O1          7.1628   -5.0181    0.0000 OH        1 <0>        0.00000
     46 O2          4.8857   -4.7607    0.0000 O         1 <0>        0.00000
     47 O3          4.8270   -5.3754    0.0000 OH        1 <0>        0.00000
     48 O4          1.7486   -3.4270    0.0000 OH        1 <0>        0.00000
     49 O5          3.0643   -6.6627    0.0000 O2        1 <0>        0.00000
     50 O6          3.9548   -5.9089    0.0000 O2        1 <0>        0.00000
     51 O7         10.6465   -2.7485    0.0000 OS        1 <0>        0.00000
     52 O8          6.4494   -1.8762    0.0000 OS        1 <0>        0.00000
     53 O9          2.7000   -2.3608    0.0000 OS        1 <0>        0.00000
     54 S1          3.8865   -6.7310    0.0000 SO        1 <0>        0.00000
     55 H1          3.3928   -0.5111    0.0000 HC        1 <0>        0.00000
     56 H2          7.2903   -7.0034    0.0000 HC        1 <0>        0.00000
     57 H3          7.0958   -2.5512    0.0000 H1        1 <0>        0.00000
     58 H4          6.9510   -4.2011    0.0000 H1        1 <0>        0.00000
     59 H5          2.6757   -1.9344    0.0000 H1        1 <0>        0.00000
     60 H6          4.1896   -4.2428    0.0000 H1        1 <0>        0.00000
     61 H7          8.2225   -6.5717    0.0000 HA        1 <0>        0.00000
     62 H8          8.2225   -6.5717    0.0000 HA        1 <0>        0.00000
     63 H9          3.5954   -5.0748    0.0000 HC        1 <0>        0.00000
     64 H10         3.5954   -5.0748    0.0000 HC        1 <0>        0.00000
     65 H11         3.5954   -5.0748    0.0000 HC        1 <0>        0.00000
     66 H12         2.9555   -4.0992    0.0000 HC        1 <0>        0.00000
     67 H13         2.9555   -4.0992    0.0000 HC        1 <0>        0.00000
     68 H14         2.9555   -4.0992    0.0000 HC        1 <0>        0.00000
     69 H15         4.5710   -4.4350    0.0000 HC        1 <0>        0.00000
     70 H16         4.5710   -4.4350    0.0000 HC        1 <0>        0.00000
     71 H17         4.5710   -4.4350    0.0000 HC        1 <0>        0.00000
     72 H18        11.4300   -2.4900    0.0000 H1        1 <0>        0.00000
     73 H19        11.4300   -2.4900    0.0000 H1        1 <0>        0.00000
     74 H20        11.4300   -2.4900    0.0000 H1        1 <0>        0.00000
     75 H21         7.5882   -6.0441    0.0000 HA        1 <0>        0.00000
     76 H22         5.3861    0.0301    0.0000 HC        1 <0>        0.00000
     77 H23         5.3861    0.0301    0.0000 HC        1 <0>        0.00000
     78 H24         4.6027   -0.2284    0.0000 HC        1 <0>        0.00000
     79 H25         4.6027   -0.2284    0.0000 HC        1 <0>        0.00000
     80 H26         6.0017   -0.5192    0.0000 HC        1 <0>        0.00000
     81 H27         6.0017   -0.5192    0.0000 HC        1 <0>        0.00000
     82 H28         4.4348   -1.0361    0.0000 HC        1 <0>        0.00000
     83 H29         4.4348   -1.0361    0.0000 HC        1 <0>        0.00000
     84 H30         6.7852   -0.2607    0.0000 HC        1 <0>        0.00000
     85 H31         6.7852   -0.2607    0.0000 HC        1 <0>        0.00000
     86 H32        10.1988   -1.3915    0.0000 HA        1 <0>        0.00000
     87 H33         3.3479   -8.2311    0.0000 HC        1 <0>        0.00000
     88 H34         3.3479   -8.2311    0.0000 HC        1 <0>        0.00000
     89 H35         4.1701   -8.2994    0.0000 HC        1 <0>        0.00000
     90 H36         4.1701   -8.2994    0.0000 HC        1 <0>        0.00000
     91 H37         9.5833   -0.8423    0.0000 HA        1 <0>        0.00000
     92 H38         2.8679   -1.5531    0.0000 HC        1 <0>        0.00000
     93 H39         2.8679   -1.5531    0.0000 HC        1 <0>        0.00000
     94 H40         9.2475   -2.4577    0.0000 HA        1 <0>        0.00000
     95 H41         6.6972   -3.3965    0.0000 HC        1 <0>        0.00000
     96 H42         6.6972   -3.3965    0.0000 HC        1 <0>        0.00000
     97 H43         6.2866   -6.9639    0.0000 HC        1 <0>        0.00000
     98 H44         6.2866   -6.9639    0.0000 HC        1 <0>        0.00000
     99 H45         5.4980   -2.9424    0.0000 H1        1 <0>        0.00000
    100 H46         5.4980   -2.9424    0.0000 H1        1 <0>        0.00000
    101 H47         3.8182   -7.5532    0.0000 H1        1 <0>        0.00000
    102 H48         7.1628   -5.0181    0.0000 HO        1 <0>        0.00000
    103 H49         4.8270   -5.3754    0.0000 HO        1 <0>        0.00000
    104 H50         1.7486   -3.4270    0.0000 HO        1 <0>        0.00000
@<TRIPOS>BOND
     1    1    6 2
     2    7    8 1
     3    7    9 1
     4    8   10 1
     5    9   11 1
     6   13   14 1
     7   12   15 ar
     8   10   21 1
     9   16   21 1
    10    6   22 1
    11   19   22 1
    12   12   23 ar
    13   17   23 ar
    14   18   24 1
    15   20   24 1
    16   13   25 1
    17   14   25 1
    18   15   26 ar
    19   11   27 1
    20   17   28 ar
    21   26   28 ar
    22   18   29 1
    23   16   30 1
    24   21   30 1
    25   29   32 1
    26   27   33 ar
    27   31   34 1
    28    2   37 1
    29    3   37 1
    30    4   37 1
    31   31   37 1
    32   19   38 1
    33   22   38 1
    34   35   38 1
    35   26   39 ar
    36   27   39 ar
    37   28   40 ar
    38   33   40 ar
    39   31   41 1
    40   36   41 2
    41   32   42 2
    42   38   42 1
    43   35   43 2
    44   20   44 1
    45   29   44 1
    46   34   44 am
    47   32   45 1
    48   34   46 2
    49   35   47 1
    50   36   48 1
    51    5   51 1
    52   23   51 1
    53   24   52 1
    54   33   52 1
    55   30   53 1
    56   36   53 1
    57   25   54 1
    58   43   54 1
    59   49   54 2
    60   50   54 2
    61   21   55 1
    62   22   56 1
    63   24   57 1
    64   29   58 1
    65   30   59 1
    66   31   60 1
    67    1   61 1
    68    1   62 1
    69    2   63 1
    70    2   64 1
    71    2   65 1
    72    3   66 1
    73    3   67 1
    74    3   68 1
    75    4   69 1
    76    4   70 1
    77    4   71 1
    78    5   72 1
    79    5   73 1
    80    5   74 1
    81    6   75 1
    82    7   76 1
    83    7   77 1
    84    8   78 1
    85    8   79 1
    86    9   80 1
    87    9   81 1
    88   10   82 1
    89   10   83 1
    90   11   84 1
    91   11   85 1
    92   12   86 1
    93   13   87 1
    94   13   88 1
    95   14   89 1
    96   14   90 1
    97   15   91 1
    98   16   92 1
    99   16   93 1
   100   17   94 1
   101   18   95 1
   102   18   96 1
   103   19   97 1
   104   19   98 1
   105   20   99 1
   106   20  100 1
   107   25  101 1
   108   45  102 1
   109   47  103 1
   110   48  104 1
@<TRIPOS>SUBSTRUCTURE
     1 <0>         1 GROUP 0 A     ****
@<TRIPOS>MOLECULE
MiniDrugBank_69
   40    41     1     0     0
SMALL
NO_CHARGES

@<TRIPOS>ATOM
      1 O1          3.7935    1.2433    0.0000 O         1 <0>        0.00000
      2 N1          3.0791    0.0058    0.0000 N         1 <0>        0.00000
      3 N2          5.6350    1.9578    0.0000 N3        1 <0>        0.00000
      4 C1          4.5080    0.0058    0.0000 CJ        1 <0>        0.00000
      5 C2          4.9205    0.7202    0.0000 CJ        1 <0>        0.00000
      6 C3          5.3330    0.0058    0.0000 CJ        1 <0>        0.00000
      7 C4          4.9205    1.5453    0.0000 CT        1 <0>        0.00000
      8 C5          4.5080   -0.8192    0.0000 CA        1 <0>        0.00000
      9 C6          3.7935    0.4183    0.0000 C         1 <0>        0.00000
     10 C7          5.2224   -1.2318    0.0000 CA        1 <0>        0.00000
     11 C8          3.7935   -1.2318    0.0000 CA        1 <0>        0.00000
     12 C9          3.0791   -0.8192    0.0000 CT        1 <0>        0.00000
     13 C10         2.3645    0.4183    0.0000 CT        1 <0>        0.00000
     14 C11         5.2224   -2.0568    0.0000 CA        1 <0>        0.00000
     15 C12         3.7935   -2.0568    0.0000 CA        1 <0>        0.00000
     16 C13         4.5080   -2.4693    0.0000 CA        1 <0>        0.00000
     17 C14         2.3645   -1.2318    0.0000 CT        1 <0>        0.00000
     18 C15         1.6500    0.0058    0.0000 CT        1 <0>        0.00000
     19 H1          5.6350    1.9578    0.0000 H         1 <0>        0.00000
     20 H2          5.6350    1.9578    0.0000 H         1 <0>        0.00000
     21 H3          4.9205    0.7202    0.0000 HC        1 <0>        0.00000
     22 H4          5.3330    0.0058    0.0000 HC        1 <0>        0.00000
     23 H5          5.3330    0.0058    0.0000 HC        1 <0>        0.00000
     24 H6          4.9205    1.5453    0.0000 H1        1 <0>        0.00000
     25 H7          4.9205    1.5453    0.0000 H1        1 <0>        0.00000
     26 H8          5.2224   -1.2318    0.0000 HA        1 <0>        0.00000
     27 H9          3.7935   -1.2318    0.0000 HA        1 <0>        0.00000
     28 H10         3.0791   -0.8192    0.0000 H1        1 <0>        0.00000
     29 H11         3.0791   -0.8192    0.0000 H1        1 <0>        0.00000
     30 H12         2.3645    0.4183    0.0000 H1        1 <0>        0.00000
     31 H13         2.3645    0.4183    0.0000 H1        1 <0>        0.00000
     32 H14         5.2224   -2.0568    0.0000 HA        1 <0>        0.00000
     33 H15         3.7935   -2.0568    0.0000 HA        1 <0>        0.00000
     34 H16         4.5080   -2.4693    0.0000 HA        1 <0>        0.00000
     35 H17         2.3645   -1.2318    0.0000 HC        1 <0>        0.00000
     36 H18         2.3645   -1.2318    0.0000 HC        1 <0>        0.00000
     37 H19         2.3645   -1.2318    0.0000 HC        1 <0>        0.00000
     38 H20         1.6500    0.0058    0.0000 HC        1 <0>        0.00000
     39 H21         1.6500    0.0058    0.0000 HC        1 <0>        0.00000
     40 H22         1.6500    0.0058    0.0000 HC        1 <0>        0.00000
@<TRIPOS>BOND
     1    1    9 2
     2    2    9 am
     3    2   12 1
     4    2   13 1
     5    3    7 1
     6    4    5 1
     7    4    6 1
     8    4    8 1
     9    4    9 1
    10    5    6 1
    11    5    7 1
    12    8   10 ar
    13    8   11 ar
    14   10   14 ar
    15   11   15 ar
    16   12   17 1
    17   13   18 1
    18   14   16 ar
    19   15   16 ar
    20    3   19 1
    21    3   20 1
    22    5   21 1
    23    6   22 1
    24    6   23 1
    25    7   24 1
    26    7   25 1
    27   10   26 1
    28   11   27 1
    29   12   28 1
    30   12   29 1
    31   13   30 1
    32   13   31 1
    33   14   32 1
    34   15   33 1
    35   16   34 1
    36   17   35 1
    37   17   36 1
    38   17   37 1
    39   18   38 1
    40   18   39 1
    41   18   40 1
@<TRIPOS>SUBSTRUCTURE
     1 <0>         1 GROUP 0 A     ****
@<TRIPOS>MOLECULE
MiniDrugBank_70
    5     4     1     0     0
SMALL
NO_CHARGES

@<TRIPOS>ATOM
      1 O1          0.8250   -0.8250    0.0000 O2        1 <0>        0.00000
      2 P1          0.8250    0.0000    0.0000 P         1 <0>        0.00000
      3 O2          0.8250    0.8250    0.0000 O2        1 <0>        0.00000
      4 F1          1.6500    0.0000    0.0000 F         1 <0>        0.00000
      5 O3          0.0000    0.0000    0.0000 O2        1 <0>        0.00000
@<TRIPOS>BOND
     1    1    2 1
     2    2    3 1
     3    2    4 1
     4    2    5 2
@<TRIPOS>SUBSTRUCTURE
     1 <0>         1 GROUP 0 A     ****
@<TRIPOS>MOLECULE
LS2
   42    45     1     0     0
SMALL
NO_CHARGES

@<TRIPOS>ATOM
      1 N1         -1.2371   -3.1206    0.0000 N         1 <0>        0.00000
      2 C1         -1.3234   -2.3001    0.0000 C         1 <0>        0.00000
      3 C2         -0.5697   -1.9646    0.0000 C*        1 <0>        0.00000
      4 C3          0.8073   -2.5777    0.0000 CB        1 <0>        0.00000
      5 C4          1.2198   -3.2921    0.0000 CB        1 <0>        0.00000
      6 C5          0.8073   -4.0066    0.0000 CA        1 <0>        0.00000
      7 C6         -0.0177   -4.0066    0.0000 CA        1 <0>        0.00000
      8 C7         -0.4302   -3.2921    0.0000 CB        1 <0>        0.00000
      9 C8         -0.0177   -2.5777    0.0000 CB        1 <0>        0.00000
     10 O1         -2.0378   -1.8876    0.0000 O         1 <0>        0.00000
     11 N2         -0.3982   -1.1576    0.0000 NB        1 <0>        0.00000
     12 S1          1.3594   -1.9646    0.0000 S         1 <0>        0.00000
     13 C9          2.1130   -2.3001    0.0000 CR        1 <0>        0.00000
     14 N3          2.0268   -3.1206    0.0000 NB        1 <0>        0.00000
     15 N4         -1.0113   -0.6056    0.0000 N2        1 <0>        0.00000
     16 C10        -0.8397    0.2014    0.0000 CA        1 <0>        0.00000
     17 C11        -1.4528    0.7534    0.0000 CA        1 <0>        0.00000
     18 C12        -1.2813    1.5604    0.0000 CA        1 <0>        0.00000
     19 C13        -0.4967    1.8154    0.0000 CA        1 <0>        0.00000
     20 C14         0.1164    1.2633    0.0000 CA        1 <0>        0.00000
     21 C15        -0.0551    0.4564    0.0000 CA        1 <0>        0.00000
     22 C16        -0.3252    2.6223    0.0000 CT        1 <0>        0.00000
     23 S2          0.4595    2.8773    0.0000 SO        1 <0>        0.00000
     24 O2          0.7144    2.0926    0.0000 O2        1 <0>        0.00000
     25 O3          0.2045    3.6619    0.0000 O2        1 <0>        0.00000
     26 N5          1.2441    3.1322    0.0000 N3        1 <0>        0.00000
     27 C17         1.4156    3.9392    0.0000 CT        1 <0>        0.00000
     28 H1         -1.2371   -3.1206    0.0000 H         1 <0>        0.00000
     29 H2          0.8073   -4.0066    0.0000 HA        1 <0>        0.00000
     30 H3         -0.0177   -4.0066    0.0000 HA        1 <0>        0.00000
     31 H4          2.1130   -2.3001    0.0000 H5        1 <0>        0.00000
     32 H5         -1.0113   -0.6056    0.0000 H         1 <0>        0.00000
     33 H6         -1.4528    0.7534    0.0000 HA        1 <0>        0.00000
     34 H7         -1.2813    1.5604    0.0000 HA        1 <0>        0.00000
     35 H8          0.1164    1.2633    0.0000 HA        1 <0>        0.00000
     36 H9         -0.0551    0.4564    0.0000 HA        1 <0>        0.00000
     37 H10        -0.3252    2.6223    0.0000 H1        1 <0>        0.00000
     38 H11        -0.3252    2.6223    0.0000 H1        1 <0>        0.00000
     39 H12         1.2441    3.1322    0.0000 H         1 <0>        0.00000
     40 H13         1.4156    3.9392    0.0000 H1        1 <0>        0.00000
     41 H14         1.4156    3.9392    0.0000 H1        1 <0>        0.00000
     42 H15         1.4156    3.9392    0.0000 H1        1 <0>        0.00000
@<TRIPOS>BOND
     1    1    2 am
     2    1    8 1
     3    2    3 1
     4    2   10 2
     5    3    9 1
     6    3   11 2
     7    4    5 ar
     8    4    9 ar
     9    4   12 1
    10    5    6 ar
    11    5   14 1
    12    6    7 ar
    13    7    8 ar
    14    8    9 ar
    15   11   15 1
    16   12   13 1
    17   13   14 2
    18   15   16 1
    19   16   17 ar
    20   16   21 ar
    21   17   18 ar
    22   18   19 ar
    23   19   20 ar
    24   19   22 1
    25   20   21 ar
    26   22   23 1
    27   23   24 2
    28   23   25 2
    29   23   26 1
    30   26   27 1
    31    1   28 1
    32    6   29 1
    33    7   30 1
    34   13   31 1
    35   15   32 1
    36   17   33 1
    37   18   34 1
    38   20   35 1
    39   21   36 1
    40   22   37 1
    41   22   38 1
    42   26   39 1
    43   27   40 1
    44   27   41 1
    45   27   42 1
@<TRIPOS>SUBSTRUCTURE
     1 <0>         1 GROUP 0 A     ****
@<TRIPOS>MOLECULE
1395
   57    63     1     0     0
SMALL
NO_CHARGES

@<TRIPOS>ATOM
      1 O1          3.3963   -1.6419    0.0000 OS        1 <0>        0.00000
      2 O2          3.6170   -3.0361    0.0000 O         1 <0>        0.00000
      3 O3          6.8101    3.0361    0.0000 O         1 <0>        0.00000
      4 C1          3.1514    0.0426    0.0000 CT        1 <0>        0.00000
      5 C2          2.3593    0.0426    0.0000 CJ        1 <0>        0.00000
      6 C3          2.1146   -0.7108    0.0000 CJ        1 <0>        0.00000
      7 C4          3.3963   -0.7108    0.0000 CT        1 <0>        0.00000
      8 C5          3.6940    0.6641    0.0000 CT        1 <0>        0.00000
      9 C6          2.7553   -1.1763    0.0000 CT        1 <0>        0.00000
     10 C7          1.5842   -0.1221    0.0000 CJ        1 <0>        0.00000
     11 C8          3.4095    1.4751    0.0000 CJ        1 <0>        0.00000
     12 C9          4.5023    0.4988    0.0000 CT        1 <0>        0.00000
     13 C10         3.9747    2.1225    0.0000 CJ        1 <0>        0.00000
     14 C11         4.2005   -0.8947    0.0000 CT        1 <0>        0.00000
     15 C12         3.1312    2.2886    0.0000 CJ        1 <0>        0.00000
     16 C13         5.0822    1.1330    0.0000 CT        1 <0>        0.00000
     17 C14         4.7573   -0.2858    0.0000 CT        1 <0>        0.00000
     18 C15         2.1146   -1.6419    0.0000 CT        1 <0>        0.00000
     19 C16         4.8167    1.9503    0.0000 CM        1 <0>        0.00000
     20 C17         3.8838   -1.3350    0.0000 CT        1 <0>        0.00000
     21 C18         5.9550    0.9334    0.0000 CT        1 <0>        0.00000
     22 C19         2.3593   -2.3953    0.0000 CT        1 <0>        0.00000
     23 C20         5.3270    0.3797    0.0000 CT        1 <0>        0.00000
     24 C21         3.1514   -2.3953    0.0000 C         1 <0>        0.00000
     25 C22         5.4054    2.6248    0.0000 CM        1 <0>        0.00000
     26 C23         6.5590    1.5940    0.0000 CT        1 <0>        0.00000
     27 C24         6.2824    2.4455    0.0000 C         1 <0>        0.00000
     28 H1          2.8892    0.6194    0.0000 HC        1 <0>        0.00000
     29 H2          2.2932    0.6727    0.0000 HC        1 <0>        0.00000
     30 H3          1.6906   -1.1817    0.0000 HC        1 <0>        0.00000
     31 H4          4.1107    1.1415    0.0000 HC        1 <0>        0.00000
     32 H5          2.8108    1.2677    0.0000 HC        1 <0>        0.00000
     33 H6          5.1216    0.3647    0.0000 HC        1 <0>        0.00000
     34 H7          4.0994    2.7439    0.0000 HC        1 <0>        0.00000
     35 H8          1.5842   -0.1221    0.0000 HC        1 <0>        0.00000
     36 H9          1.5842   -0.1221    0.0000 HC        1 <0>        0.00000
     37 H10         4.2005   -0.8947    0.0000 HC        1 <0>        0.00000
     38 H11         4.2005   -0.8947    0.0000 HC        1 <0>        0.00000
     39 H12         3.1312    2.2886    0.0000 HC        1 <0>        0.00000
     40 H13         3.1312    2.2886    0.0000 HC        1 <0>        0.00000
     41 H14         4.7573   -0.2858    0.0000 HC        1 <0>        0.00000
     42 H15         4.7573   -0.2858    0.0000 HC        1 <0>        0.00000
     43 H16         2.1146   -1.6419    0.0000 HC        1 <0>        0.00000
     44 H17         2.1146   -1.6419    0.0000 HC        1 <0>        0.00000
     45 H18         3.8838   -1.3350    0.0000 HC        1 <0>        0.00000
     46 H19         3.8838   -1.3350    0.0000 HC        1 <0>        0.00000
     47 H20         3.8838   -1.3350    0.0000 HC        1 <0>        0.00000
     48 H21         5.9550    0.9334    0.0000 HC        1 <0>        0.00000
     49 H22         5.9550    0.9334    0.0000 HC        1 <0>        0.00000
     50 H23         2.3593   -2.3953    0.0000 HC        1 <0>        0.00000
     51 H24         2.3593   -2.3953    0.0000 HC        1 <0>        0.00000
     52 H25         5.3270    0.3797    0.0000 HC        1 <0>        0.00000
     53 H26         5.3270    0.3797    0.0000 HC        1 <0>        0.00000
     54 H27         5.3270    0.3797    0.0000 HC        1 <0>        0.00000
     55 H28         5.4054    2.6248    0.0000 HA        1 <0>        0.00000
     56 H29         6.5590    1.5940    0.0000 HC        1 <0>        0.00000
     57 H30         6.5590    1.5940    0.0000 HC        1 <0>        0.00000
@<TRIPOS>BOND
     1    1    9 1
     2    1   24 1
     3    2   24 2
     4    3   27 2
     5    4    5 1
     6    4    7 1
     7    4    8 1
     8    4   28 1
     9    5    6 1
    10    5   10 1
    11    5   29 1
    12    6    9 1
    13    6   10 1
    14    6   30 1
    15    7    9 1
    16    7   14 1
    17    7   20 1
    18    8   11 1
    19    8   12 1
    20    8   31 1
    21    9   18 1
    22   11   13 1
    23   11   15 1
    24   11   32 1
    25   12   16 1
    26   12   17 1
    27   12   33 1
    28   13   15 1
    29   13   19 1
    30   13   34 1
    31   14   17 1
    32   16   19 1
    33   16   21 1
    34   16   23 1
    35   18   22 1
    36   19   25 2
    37   21   26 1
    38   22   24 1
    39   25   27 1
    40   26   27 1
    41   10   35 1
    42   10   36 1
    43   14   37 1
    44   14   38 1
    45   15   39 1
    46   15   40 1
    47   17   41 1
    48   17   42 1
    49   18   43 1
    50   18   44 1
    51   20   45 1
    52   20   46 1
    53   20   47 1
    54   21   48 1
    55   21   49 1
    56   22   50 1
    57   22   51 1
    58   23   52 1
    59   23   53 1
    60   23   54 1
    61   25   55 1
    62   26   56 1
    63   26   57 1
@<TRIPOS>SUBSTRUCTURE
     1 <0>         1 GROUP 0 A     ****
@<TRIPOS>MOLECULE
MiniDrugBank_73
   58    62     1     0     0
SMALL
NO_CHARGES

@<TRIPOS>ATOM
      1 N1          0.3001    0.5690    0.0000 N         1 <0>        0.00000
      2 C1          1.1253    0.5690    0.0000 C         1 <0>        0.00000
      3 C2          1.1253   -0.2563    0.0000 CT        1 <0>        0.00000
      4 C3          0.3001   -0.2563    0.0000 CT        1 <0>        0.00000
      5 C4          3.8887   -0.9941    0.0000 CR        1 <0>        0.00000
      6 N2          4.5264   -1.5066    0.0000 NB        1 <0>        0.00000
      7 C5         -0.4126    0.9816    0.0000 CM        1 <0>        0.00000
      8 C6         -1.1253    0.5648    0.0000 CM        1 <0>        0.00000
      9 C7         -3.3133    0.8939    0.0000 C         1 <0>        0.00000
     10 C8          3.0926   -1.2065    0.0000 C         1 <0>        0.00000
     11 N3         -3.8636    0.2813    0.0000 N         1 <0>        0.00000
     12 N4          1.7130   -0.8356    0.0000 N         1 <0>        0.00000
     13 N5          4.1762   -0.2188    0.0000 NB        1 <0>        0.00000
     14 C9          2.5049   -0.6189    0.0000 C         1 <0>        0.00000
     15 C10        -2.5631    0.5648    0.0000 CM        1 <0>        0.00000
     16 S1         -0.4126   -0.6689    0.0000 S         1 <0>        0.00000
     17 C11         5.2140   -1.0565    0.0000 CR        1 <0>        0.00000
     18 C12        -1.8505    0.9774    0.0000 CM        1 <0>        0.00000
     19 S2          5.0014   -0.2605    0.0000 S         1 <0>        0.00000
     20 C13        -0.4208    1.8068    0.0000 C         1 <0>        0.00000
     21 C14        -1.1336   -0.2605    0.0000 CT        1 <0>        0.00000
     22 C15        -3.4510   -0.4313    0.0000 CT        1 <0>        0.00000
     23 N6          2.8801   -1.9985    0.0000 NB        1 <0>        0.00000
     24 O1          1.7047    1.1565    0.0000 O         1 <0>        0.00000
     25 C16        -2.6465   -0.2563    0.0000 CT        1 <0>        0.00000
     26 O2         -3.4885    1.7026    0.0000 O         1 <0>        0.00000
     27 C17        -4.6888    0.3688    0.0000 CT        1 <0>        0.00000
     28 O3          2.7175    0.1771    0.0000 O         1 <0>        0.00000
     29 N7         -5.9016    0.9065    0.0000 N3        1 <0>        0.00000
     30 O4          0.2918    2.2194    0.0000 O         1 <0>        0.00000
     31 N8          5.9893   -1.3567    0.0000 N2        1 <0>        0.00000
     32 O5         -1.1378    2.2194    0.0000 OH        1 <0>        0.00000
     33 O6          2.0881   -2.2194    0.0000 OH        1 <0>        0.00000
     34 C18        -5.2348   -0.2438    0.0000 CT        1 <0>        0.00000
     35 C19        -5.1014    1.0815    0.0000 CT        1 <0>        0.00000
     36 C20        -5.9893    0.0895    0.0000 CT        1 <0>        0.00000
     37 H1          0.5168   -1.0482    0.0000 H2        1 <0>        0.00000
     38 H2          1.9503   -0.2563    0.0000 H1        1 <0>        0.00000
     39 H3         -4.1343   -0.2421    0.0000 H1        1 <0>        0.00000
     40 H4          1.7130   -0.8356    0.0000 H         1 <0>        0.00000
     41 H5         -1.8505    0.9774    0.0000 HA        1 <0>        0.00000
     42 H6         -1.1336   -0.2605    0.0000 H1        1 <0>        0.00000
     43 H7         -1.1336   -0.2605    0.0000 H1        1 <0>        0.00000
     44 H8         -3.4510   -0.4313    0.0000 H1        1 <0>        0.00000
     45 H9         -3.4510   -0.4313    0.0000 H1        1 <0>        0.00000
     46 H10        -2.6465   -0.2563    0.0000 HC        1 <0>        0.00000
     47 H11        -2.6465   -0.2563    0.0000 HC        1 <0>        0.00000
     48 H12        -5.9016    0.9065    0.0000 H         1 <0>        0.00000
     49 H13         5.9893   -1.3567    0.0000 H         1 <0>        0.00000
     50 H14         5.9893   -1.3567    0.0000 H         1 <0>        0.00000
     51 H15        -1.1378    2.2194    0.0000 HO        1 <0>        0.00000
     52 H16         2.0881   -2.2194    0.0000 HO        1 <0>        0.00000
     53 H17        -5.2348   -0.2438    0.0000 HC        1 <0>        0.00000
     54 H18        -5.2348   -0.2438    0.0000 HC        1 <0>        0.00000
     55 H19        -5.1014    1.0815    0.0000 H1        1 <0>        0.00000
     56 H20        -5.1014    1.0815    0.0000 H1        1 <0>        0.00000
     57 H21        -5.9893    0.0895    0.0000 H1        1 <0>        0.00000
     58 H22        -5.9893    0.0895    0.0000 H1        1 <0>        0.00000
@<TRIPOS>BOND
     1    1    2 am
     2    3    4 1
     3    1    4 1
     4    5   10 1
     5    5    6 1
     6    1    7 1
     7    7    8 2
     8    9   15 1
     9   10   14 1
    10    9   11 am
    11    3   12 1
    12    5   13 2
    13   12   14 am
    14   15   18 2
    15    4   16 1
    16    6   17 2
    17    8   18 1
    18   13   19 1
    19    7   20 1
    20    8   21 1
    21   22   25 1
    22   10   23 2
    23    2   24 2
    24   15   25 1
    25    9   26 2
    26   11   27 1
    27   14   28 2
    28   29   35 1
    29   20   30 2
    30   17   31 1
    31   20   32 1
    32   23   33 1
    33   27   34 1
    34   27   35 1
    35   34   36 1
    36    4   37 1
    37    2    3 1
    38   16   21 1
    39   11   22 1
    40   17   19 1
    41   29   36 1
    42    3   38 1
    43   27   39 1
    44   12   40 1
    45   18   41 1
    46   21   42 1
    47   21   43 1
    48   22   44 1
    49   22   45 1
    50   25   46 1
    51   25   47 1
    52   29   48 1
    53   31   49 1
    54   31   50 1
    55   32   51 1
    56   33   52 1
    57   34   53 1
    58   34   54 1
    59   35   55 1
    60   35   56 1
    61   36   57 1
    62   36   58 1
@<TRIPOS>SUBSTRUCTURE
     1 <0>         1 GROUP 0 A     ****
@<TRIPOS>MOLECULE
1400
   35    35     1     0     0
SMALL
NO_CHARGES

@<TRIPOS>ATOM
      1 C1         19.1051  -10.2897    0.0000 CA        1 <0>        0.00000
      2 C2         19.8217   -9.8748    0.0000 CA        1 <0>        0.00000
      3 C3         19.1086  -11.1159    0.0000 CA        1 <0>        0.00000
      4 O1         18.3921   -9.8782    0.0000 OS        1 <0>        0.00000
      5 C4         20.5348  -10.2897    0.0000 CA        1 <0>        0.00000
      6 C5         19.8217  -11.5273    0.0000 CA        1 <0>        0.00000
      7 C6         17.6789  -10.2931    0.0000 C         1 <0>        0.00000
      8 C7         20.5348  -11.1125    0.0000 CA        1 <0>        0.00000
      9 N1         21.2514   -9.8748    0.0000 N3        1 <0>        0.00000
     10 N2         16.9623   -9.8816    0.0000 N         1 <0>        0.00000
     11 O2         17.6789  -11.1194    0.0000 O         1 <0>        0.00000
     12 C8         22.2317   -9.3332    0.0000 CT        1 <0>        0.00000
     13 C9         20.8605   -9.2508    0.0000 CT        1 <0>        0.00000
     14 C10        21.7348  -10.5845    0.0000 CT        1 <0>        0.00000
     15 C11        16.2526  -10.2965    0.0000 CT        1 <0>        0.00000
     16 C12        16.9623   -9.0554    0.0000 CT        1 <0>        0.00000
     17 H1         19.8217   -9.8748    0.0000 HA        1 <0>        0.00000
     18 H2         19.1086  -11.1159    0.0000 HA        1 <0>        0.00000
     19 H3         19.8217  -11.5273    0.0000 HA        1 <0>        0.00000
     20 H4         20.5348  -11.1125    0.0000 HA        1 <0>        0.00000
     21 H5         22.2317   -9.3332    0.0000 HP        1 <0>        0.00000
     22 H6         22.2317   -9.3332    0.0000 HP        1 <0>        0.00000
     23 H7         22.2317   -9.3332    0.0000 HP        1 <0>        0.00000
     24 H8         20.8605   -9.2508    0.0000 HP        1 <0>        0.00000
     25 H9         20.8605   -9.2508    0.0000 HP        1 <0>        0.00000
     26 H10        20.8605   -9.2508    0.0000 HP        1 <0>        0.00000
     27 H11        21.7348  -10.5845    0.0000 HP        1 <0>        0.00000
     28 H12        21.7348  -10.5845    0.0000 HP        1 <0>        0.00000
     29 H13        21.7348  -10.5845    0.0000 HP        1 <0>        0.00000
     30 H14        16.2526  -10.2965    0.0000 H1        1 <0>        0.00000
     31 H15        16.2526  -10.2965    0.0000 H1        1 <0>        0.00000
     32 H16        16.2526  -10.2965    0.0000 H1        1 <0>        0.00000
     33 H17        16.9623   -9.0554    0.0000 H1        1 <0>        0.00000
     34 H18        16.9623   -9.0554    0.0000 H1        1 <0>        0.00000
     35 H19        16.9623   -9.0554    0.0000 H1        1 <0>        0.00000
@<TRIPOS>BOND
     1    1    2 ar
     2    1    3 ar
     3    1    4 1
     4    2    5 ar
     5    3    6 ar
     6    4    7 1
     7    5    8 ar
     8    5    9 1
     9    7   10 am
    10    7   11 2
    11    9   12 1
    12    9   13 1
    13    9   14 1
    14   10   15 1
    15   10   16 1
    16    6    8 ar
    17    2   17 1
    18    3   18 1
    19    6   19 1
    20    8   20 1
    21   12   21 1
    22   12   22 1
    23   12   23 1
    24   13   24 1
    25   13   25 1
    26   13   26 1
    27   14   27 1
    28   14   28 1
    29   14   29 1
    30   15   30 1
    31   15   31 1
    32   15   32 1
    33   16   33 1
    34   16   34 1
    35   16   35 1
@<TRIPOS>SUBSTRUCTURE
     1 <0>         1 GROUP 0 A     ****
@<TRIPOS>MOLECULE
RHP
   27    28     1     0     0
SMALL
NO_CHARGES

@<TRIPOS>ATOM
      1 C1         -2.0428    2.5600    0.0000 C2        1 <0>        0.00000
      2 C2         -1.7878    1.7754    0.0000 C2        1 <0>        0.00000
      3 C3         -1.5329    0.9907    0.0000 CT        1 <0>        0.00000
      4 N1         -0.7259    0.8192    0.0000 N3        1 <0>        0.00000
      5 C4         -0.4710    0.0346    0.0000 CT        1 <0>        0.00000
      6 C5         -0.9559   -0.6328    0.0000 CT        1 <0>        0.00000
      7 C6         -0.4710   -1.3003    0.0000 CT        1 <0>        0.00000
      8 C7          0.3136   -1.0453    0.0000 CA        1 <0>        0.00000
      9 C8          0.3136   -0.2203    0.0000 CA        1 <0>        0.00000
     10 C9          1.0281    0.1922    0.0000 CA        1 <0>        0.00000
     11 C10         1.0281   -1.4578    0.0000 CA        1 <0>        0.00000
     12 C11         1.7426   -1.0453    0.0000 CA        1 <0>        0.00000
     13 C12         1.7426   -0.2203    0.0000 CA        1 <0>        0.00000
     14 O1          2.4570    0.1922    0.0000 OH        1 <0>        0.00000
     15 H1         -1.0477    0.1259    0.0000 H1        1 <0>        0.00000
     16 H2         -2.0428    2.5600    0.0000 HC        1 <0>        0.00000
     17 H3         -1.5329    0.9907    0.0000 H1        1 <0>        0.00000
     18 H4         -1.5329    0.9907    0.0000 H1        1 <0>        0.00000
     19 H5         -0.7259    0.8192    0.0000 H         1 <0>        0.00000
     20 H6         -0.9559   -0.6328    0.0000 HC        1 <0>        0.00000
     21 H7         -0.9559   -0.6328    0.0000 HC        1 <0>        0.00000
     22 H8         -0.4710   -1.3003    0.0000 HC        1 <0>        0.00000
     23 H9         -0.4710   -1.3003    0.0000 HC        1 <0>        0.00000
     24 H10         1.0281    0.1922    0.0000 HA        1 <0>        0.00000
     25 H11         1.0281   -1.4578    0.0000 HA        1 <0>        0.00000
     26 H12         1.7426   -1.0453    0.0000 HA        1 <0>        0.00000
     27 H13         2.4570    0.1922    0.0000 HO        1 <0>        0.00000
@<TRIPOS>BOND
     1    1    2 3
     2    2    3 1
     3    3    4 1
     4    4    5 1
     5    5    6 1
     6    5    9 1
     7    5   15 1
     8    6    7 1
     9    7    8 1
    10    8    9 ar
    11    8   11 ar
    12    9   10 ar
    13   10   13 ar
    14   11   12 ar
    15   12   13 ar
    16   13   14 1
    17    1   16 1
    18    3   17 1
    19    3   18 1
    20    4   19 1
    21    6   20 1
    22    6   21 1
    23    7   22 1
    24    7   23 1
    25   10   24 1
    26   11   25 1
    27   12   26 1
    28   14   27 1
@<TRIPOS>SUBSTRUCTURE
     1 <0>         1 GROUP 0 A     ****
@<TRIPOS>MOLECULE
MiniDrugBank_76
   32    32     1     0     0
SMALL
NO_CHARGES

@<TRIPOS>ATOM
      1 N1         -0.7066    1.0881    0.0000 N3        1 <0>        0.00000
      2 C1         -0.7066    0.2631    0.0000 CT        1 <0>        0.00000
      3 C2         -1.4211   -0.1494    0.0000 CT        1 <0>        0.00000
      4 S1         -2.1356    0.2631    0.0000 S         1 <0>        0.00000
      5 C3         -2.8501   -0.1494    0.0000 CT        1 <0>        0.00000
      6 C4         -2.9363   -0.9698    0.0000 CT        1 <0>        0.00000
      7 C5         -3.7433   -1.1414    0.0000 CT        1 <0>        0.00000
      8 O1         -4.1558   -0.4269    0.0000 OS        1 <0>        0.00000
      9 N2         -3.6037    0.1862    0.0000 N3        1 <0>        0.00000
     10 C6         -4.0788   -1.8950    0.0000 CT        1 <0>        0.00000
     11 N3         -3.5939   -2.5625    0.0000 N3        1 <0>        0.00000
     12 C7         -4.8993   -1.9813    0.0000 C         1 <0>        0.00000
     13 O2         -5.2349   -2.7350    0.0000 OH        1 <0>        0.00000
     14 O3         -5.3842   -1.3138    0.0000 O         1 <0>        0.00000
     15 C8          0.0078   -0.1494    0.0000 C         1 <0>        0.00000
     16 O4          0.7223    0.2631    0.0000 OH        1 <0>        0.00000
     17 O5          0.0078   -0.9744    0.0000 O         1 <0>        0.00000
     18 H1         -0.7066    1.0881    0.0000 H         1 <0>        0.00000
     19 H2         -0.7066    1.0881    0.0000 H         1 <0>        0.00000
     20 H3         -0.7066    0.2631    0.0000 H1        1 <0>        0.00000
     21 H4         -1.4211   -0.1494    0.0000 H1        1 <0>        0.00000
     22 H5         -1.4211   -0.1494    0.0000 H1        1 <0>        0.00000
     23 H6         -2.8501   -0.1494    0.0000 H2        1 <0>        0.00000
     24 H7         -2.9363   -0.9698    0.0000 HC        1 <0>        0.00000
     25 H8         -2.9363   -0.9698    0.0000 HC        1 <0>        0.00000
     26 H9         -3.7433   -1.1414    0.0000 H1        1 <0>        0.00000
     27 H10        -3.6037    0.1862    0.0000 H         1 <0>        0.00000
     28 H11        -4.0788   -1.8950    0.0000 H1        1 <0>        0.00000
     29 H12        -3.5939   -2.5625    0.0000 H         1 <0>        0.00000
     30 H13        -3.5939   -2.5625    0.0000 H         1 <0>        0.00000
     31 H14        -5.2349   -2.7350    0.0000 HO        1 <0>        0.00000
     32 H15         0.7223    0.2631    0.0000 HO        1 <0>        0.00000
@<TRIPOS>BOND
     1    1    2 1
     2    2    3 1
     3    3    4 1
     4    4    5 1
     5    5    6 1
     6    6    7 1
     7    7    8 1
     8    8    9 1
     9    5    9 1
    10    7   10 1
    11   10   11 1
    12   10   12 1
    13   12   13 1
    14   12   14 2
    15    2   15 1
    16   15   16 1
    17   15   17 2
    18    1   18 1
    19    1   19 1
    20    2   20 1
    21    3   21 1
    22    3   22 1
    23    5   23 1
    24    6   24 1
    25    6   25 1
    26    7   26 1
    27    9   27 1
    28   10   28 1
    29   11   29 1
    30   11   30 1
    31   13   31 1
    32   16   32 1
@<TRIPOS>SUBSTRUCTURE
     1 <0>         1 GROUP 0 A     ****
@<TRIPOS>MOLECULE
MiniDrugBank_77
  107   111     1     0     0
SMALL
NO_CHARGES

@<TRIPOS>ATOM
      1 C1         11.4117    6.5906    0.0000 CT        1 <0>        0.00000
      2 O1         12.1262    6.1781    0.0000 OS        1 <0>        0.00000
      3 C2         12.1262    5.3531    0.0000 CA        1 <0>        0.00000
      4 C3         12.8407    4.9406    0.0000 CA        1 <0>        0.00000
      5 C4         12.8407    4.1156    0.0000 CA        1 <0>        0.00000
      6 C5         13.5551    3.7031    0.0000 CM        1 <0>        0.00000
      7 C6         13.5551    2.8781    0.0000 CM        1 <0>        0.00000
      8 C7         14.2696    2.4656    0.0000 C         1 <0>        0.00000
      9 O2         14.2696    1.6406    0.0000 O         1 <0>        0.00000
     10 S1         14.9841    2.8781    0.0000 S         1 <0>        0.00000
     11 C8         15.6986    2.4656    0.0000 CT        1 <0>        0.00000
     12 C9         16.4130    2.8781    0.0000 CT        1 <0>        0.00000
     13 N1         17.1275    2.4656    0.0000 N         1 <0>        0.00000
     14 C10        17.8420    2.8781    0.0000 C         1 <0>        0.00000
     15 O3         17.8420    3.7031    0.0000 O         1 <0>        0.00000
     16 C11        18.5564    2.4656    0.0000 CT        1 <0>        0.00000
     17 C12        19.2709    2.8781    0.0000 CT        1 <0>        0.00000
     18 N2         19.9854    2.4656    0.0000 N         1 <0>        0.00000
     19 C13        20.6998    2.8781    0.0000 C         1 <0>        0.00000
     20 O4         20.6998    3.7031    0.0000 O         1 <0>        0.00000
     21 C14        21.4143    2.4656    0.0000 CJ        1 <0>        0.00000
     22 O5         21.1322    1.6904    0.0000 OH        1 <0>        0.00000
     23 C15        21.9446    3.0976    0.0000 CJ        1 <0>        0.00000
     24 O6         22.0879    3.9101    0.0000 OS        1 <0>        0.00000
     25 P1         22.8631    4.1922    0.0000 P         1 <0>        0.00000
     26 O7         23.1453    3.4170    0.0000 OH        1 <0>        0.00000
     27 O8         22.5810    4.9675    0.0000 O         1 <0>        0.00000
     28 O9         23.6384    4.4744    0.0000 OS        1 <0>        0.00000
     29 P2         24.2704    3.9441    0.0000 P         1 <0>        0.00000
     30 O10        23.7401    3.3121    0.0000 OH        1 <0>        0.00000
     31 O11        24.8007    4.5761    0.0000 O         1 <0>        0.00000
     32 O12        24.9023    3.4138    0.0000 OS        1 <0>        0.00000
     33 C16        25.6776    3.6960    0.0000 CT        1 <0>        0.00000
     34 C17        26.3096    3.1657    0.0000 CT        1 <0>        0.00000
     35 O13        27.1101    3.3652    0.0000 OS        1 <0>        0.00000
     36 C18        27.5473    2.6656    0.0000 CT        1 <0>        0.00000
     37 C19        27.0170    2.0336    0.0000 CT        1 <0>        0.00000
     38 O14        27.2165    1.2331    0.0000 OH        1 <0>        0.00000
     39 C20        26.2520    2.3427    0.0000 CT        1 <0>        0.00000
     40 O15        25.5524    1.9055    0.0000 OS        1 <0>        0.00000
     41 P3         24.8240    2.2928    0.0000 P         1 <0>        0.00000
     42 O16        25.2113    3.0212    0.0000 OH        1 <0>        0.00000
     43 O17        24.4366    1.5644    0.0000 OH        1 <0>        0.00000
     44 O18        24.0955    2.6801    0.0000 O         1 <0>        0.00000
     45 N3         28.3702    2.6081    0.0000 N*        1 <0>        0.00000
     46 C21        28.9005    3.2400    0.0000 CR        1 <0>        0.00000
     47 N4         29.6655    2.9310    0.0000 NB        1 <0>        0.00000
     48 C22        29.6079    2.1080    0.0000 CB        1 <0>        0.00000
     49 C23        30.1810    1.5145    0.0000 CA        1 <0>        0.00000
     50 N5         30.9815    1.7141    0.0000 N2        1 <0>        0.00000
     51 N6         29.9536    0.7215    0.0000 NC        1 <0>        0.00000
     52 C24        29.1531    0.5219    0.0000 CA        1 <0>        0.00000
     53 N7         28.5800    1.1154    0.0000 NC        1 <0>        0.00000
     54 C25        28.8074    1.9084    0.0000 CB        1 <0>        0.00000
     55 C26        22.2268    2.3223    0.0000 CJ        1 <0>        0.00000
     56 C27        23.0486    2.2504    0.0000 CT        1 <0>        0.00000
     57 C28        22.4403    1.5255    0.0000 CT        1 <0>        0.00000
     58 C29        12.1262    3.7031    0.0000 CA        1 <0>        0.00000
     59 C30        11.4117    4.1156    0.0000 CA        1 <0>        0.00000
     60 O19        10.6973    3.7031    0.0000 OS        1 <0>        0.00000
     61 C31         9.9828    4.1156    0.0000 CT        1 <0>        0.00000
     62 C32        11.4117    4.9406    0.0000 CA        1 <0>        0.00000
     63 O20        10.6973    5.3531    0.0000 OH        1 <0>        0.00000
     64 H1         11.4117    6.5906    0.0000 H1        1 <0>        0.00000
     65 H2         11.4117    6.5906    0.0000 H1        1 <0>        0.00000
     66 H3         11.4117    6.5906    0.0000 H1        1 <0>        0.00000
     67 H4         12.8407    4.9406    0.0000 HA        1 <0>        0.00000
     68 H5         13.5551    3.7031    0.0000 HA        1 <0>        0.00000
     69 H6         13.5551    2.8781    0.0000 HA        1 <0>        0.00000
     70 H7         15.6986    2.4656    0.0000 H1        1 <0>        0.00000
     71 H8         15.6986    2.4656    0.0000 H1        1 <0>        0.00000
     72 H9         16.4130    2.8781    0.0000 H1        1 <0>        0.00000
     73 H10        16.4130    2.8781    0.0000 H1        1 <0>        0.00000
     74 H11        17.1275    2.4656    0.0000 H         1 <0>        0.00000
     75 H12        18.5564    2.4656    0.0000 HC        1 <0>        0.00000
     76 H13        18.5564    2.4656    0.0000 HC        1 <0>        0.00000
     77 H14        19.2709    2.8781    0.0000 H1        1 <0>        0.00000
     78 H15        19.2709    2.8781    0.0000 H1        1 <0>        0.00000
     79 H16        19.9854    2.4656    0.0000 H         1 <0>        0.00000
     80 H17        21.1322    1.6904    0.0000 HO        1 <0>        0.00000
     81 H18        21.9446    3.0976    0.0000 H1        1 <0>        0.00000
     82 H19        23.1453    3.4170    0.0000 HO        1 <0>        0.00000
     83 H20        23.7401    3.3121    0.0000 HO        1 <0>        0.00000
     84 H21        25.6776    3.6960    0.0000 H1        1 <0>        0.00000
     85 H22        25.6776    3.6960    0.0000 H1        1 <0>        0.00000
     86 H23        26.3096    3.1657    0.0000 H1        1 <0>        0.00000
     87 H24        27.5473    2.6656    0.0000 H2        1 <0>        0.00000
     88 H25        27.0170    2.0336    0.0000 H1        1 <0>        0.00000
     89 H26        27.2165    1.2331    0.0000 HO        1 <0>        0.00000
     90 H27        26.2520    2.3427    0.0000 H1        1 <0>        0.00000
     91 H28        25.2113    3.0212    0.0000 HO        1 <0>        0.00000
     92 H29        24.4366    1.5644    0.0000 HO        1 <0>        0.00000
     93 H30        28.9005    3.2400    0.0000 H5        1 <0>        0.00000
     94 H31        30.9815    1.7141    0.0000 H         1 <0>        0.00000
     95 H32        30.9815    1.7141    0.0000 H         1 <0>        0.00000
     96 H33        29.1531    0.5219    0.0000 H5        1 <0>        0.00000
     97 H34        23.0486    2.2504    0.0000 HC        1 <0>        0.00000
     98 H35        23.0486    2.2504    0.0000 HC        1 <0>        0.00000
     99 H36        23.0486    2.2504    0.0000 HC        1 <0>        0.00000
    100 H37        22.4403    1.5255    0.0000 HC        1 <0>        0.00000
    101 H38        22.4403    1.5255    0.0000 HC        1 <0>        0.00000
    102 H39        22.4403    1.5255    0.0000 HC        1 <0>        0.00000
    103 H40        12.1262    3.7031    0.0000 HA        1 <0>        0.00000
    104 H41         9.9828    4.1156    0.0000 H1        1 <0>        0.00000
    105 H42         9.9828    4.1156    0.0000 H1        1 <0>        0.00000
    106 H43         9.9828    4.1156    0.0000 H1        1 <0>        0.00000
    107 H44        10.6973    5.3531    0.0000 HO        1 <0>        0.00000
@<TRIPOS>BOND
     1    1    2 1
     2    2    3 1
     3    3    4 ar
     4    4    5 ar
     5    5    6 1
     6    6    7 2
     7    7    8 1
     8    8    9 2
     9    8   10 1
    10   10   11 1
    11   11   12 1
    12   12   13 1
    13   13   14 am
    14   14   15 2
    15   14   16 1
    16   16   17 1
    17   17   18 1
    18   18   19 am
    19   19   20 2
    20   19   21 1
    21   21   22 1
    22   21   23 1
    23   23   24 1
    24   24   25 1
    25   25   26 1
    26   25   27 2
    27   25   28 1
    28   28   29 1
    29   29   30 1
    30   29   31 2
    31   29   32 1
    32   32   33 1
    33   33   34 1
    34   34   35 1
    35   35   36 1
    36   36   37 1
    37   37   38 1
    38   37   39 1
    39   34   39 1
    40   39   40 1
    41   40   41 1
    42   41   42 1
    43   41   43 1
    44   41   44 2
    45   36   45 1
    46   45   46 1
    47   46   47 2
    48   47   48 1
    49   48   49 ar
    50   49   50 1
    51   49   51 ar
    52   51   52 ar
    53   52   53 ar
    54   53   54 ar
    55   45   54 1
    56   48   54 ar
    57   23   55 1
    58   21   55 1
    59   55   56 1
    60   55   57 1
    61    5   58 ar
    62   58   59 ar
    63   59   60 1
    64   60   61 1
    65   59   62 ar
    66    3   62 ar
    67   62   63 1
    68    1   64 1
    69    1   65 1
    70    1   66 1
    71    4   67 1
    72    6   68 1
    73    7   69 1
    74   11   70 1
    75   11   71 1
    76   12   72 1
    77   12   73 1
    78   13   74 1
    79   16   75 1
    80   16   76 1
    81   17   77 1
    82   17   78 1
    83   18   79 1
    84   22   80 1
    85   23   81 1
    86   26   82 1
    87   30   83 1
    88   33   84 1
    89   33   85 1
    90   34   86 1
    91   36   87 1
    92   37   88 1
    93   38   89 1
    94   39   90 1
    95   42   91 1
    96   43   92 1
    97   46   93 1
    98   50   94 1
    99   50   95 1
   100   52   96 1
   101   56   97 1
   102   56   98 1
   103   56   99 1
   104   57  100 1
   105   57  101 1
   106   57  102 1
   107   58  103 1
   108   61  104 1
   109   61  105 1
   110   61  106 1
   111   63  107 1
@<TRIPOS>SUBSTRUCTURE
     1 <0>         1 GROUP 0 A     ****
@<TRIPOS>MOLECULE
MiniDrugBank_78
   56    60     1     0     0
SMALL
NO_CHARGES

@<TRIPOS>ATOM
      1 O1          0.2122    0.6611    0.0000 OH        1 <0>        0.00000
      2 O2          0.0407   -0.1459    0.0000 OS        1 <0>        0.00000
      3 C1          0.6538   -0.6979    0.0000 CT        1 <0>        0.00000
      4 C2          0.0407   -1.2500    0.0000 CT        1 <0>        0.00000
      5 C3         -0.7439   -0.9950    0.0000 CA        1 <0>        0.00000
      6 C4         -1.3570   -1.5471    0.0000 CA        1 <0>        0.00000
      7 C5         -2.1416   -1.2921    0.0000 CA        1 <0>        0.00000
      8 C6         -2.3132   -0.4852    0.0000 CA        1 <0>        0.00000
      9 Br1        -3.0978   -0.2302    0.0000 BR        1 <0>        0.00000
     10 C7         -1.7001    0.0669    0.0000 CA        1 <0>        0.00000
     11 C8         -0.9154   -0.1881    0.0000 CA        1 <0>        0.00000
     12 N1          1.1387   -0.0305    0.0000 NB        1 <0>        0.00000
     13 C9          1.9233   -0.2854    0.0000 CR        1 <0>        0.00000
     14 C10         2.6378    0.1271    0.0000 CT        1 <0>        0.00000
     15 C11         2.6378    0.9521    0.0000 CT        1 <0>        0.00000
     16 C12         3.3523    1.3646    0.0000 CA        1 <0>        0.00000
     17 C13         3.3523    2.1896    0.0000 CA        1 <0>        0.00000
     18 C14         4.0668    2.6021    0.0000 CA        1 <0>        0.00000
     19 C15         4.7812    2.1896    0.0000 CA        1 <0>        0.00000
     20 C16         4.7812    1.3646    0.0000 CA        1 <0>        0.00000
     21 C17         4.0668    0.9521    0.0000 CA        1 <0>        0.00000
     22 N2          3.3523   -0.2854    0.0000 N         1 <0>        0.00000
     23 C18         3.3523   -1.1104    0.0000 CM        1 <0>        0.00000
     24 C19         2.6378   -1.5229    0.0000 CM        1 <0>        0.00000
     25 N3          1.9233   -1.1104    0.0000 N         1 <0>        0.00000
     26 C20         1.1387   -1.3654    0.0000 C         1 <0>        0.00000
     27 O3          0.8838   -2.1500    0.0000 O         1 <0>        0.00000
     28 C21         4.0668   -1.5229    0.0000 CA        1 <0>        0.00000
     29 C22         4.7812   -1.1104    0.0000 CA        1 <0>        0.00000
     30 C23         5.4957   -1.5229    0.0000 CA        1 <0>        0.00000
     31 C24         5.4957   -2.3479    0.0000 CA        1 <0>        0.00000
     32 O4          6.2102   -2.7604    0.0000 OH        1 <0>        0.00000
     33 C25         4.7812   -2.7604    0.0000 CA        1 <0>        0.00000
     34 C26         4.0668   -2.3479    0.0000 CA        1 <0>        0.00000
     35 H1          0.2122    0.6611    0.0000 HO        1 <0>        0.00000
     36 H2          0.0407   -1.2500    0.0000 HC        1 <0>        0.00000
     37 H3          0.0407   -1.2500    0.0000 HC        1 <0>        0.00000
     38 H4         -1.3570   -1.5471    0.0000 HA        1 <0>        0.00000
     39 H5         -2.1416   -1.2921    0.0000 HA        1 <0>        0.00000
     40 H6         -1.7001    0.0669    0.0000 HA        1 <0>        0.00000
     41 H7         -0.9154   -0.1881    0.0000 HA        1 <0>        0.00000
     42 H8          2.6378    0.1271    0.0000 H1        1 <0>        0.00000
     43 H9          2.6378    0.9521    0.0000 HC        1 <0>        0.00000
     44 H10         2.6378    0.9521    0.0000 HC        1 <0>        0.00000
     45 H11         3.3523    2.1896    0.0000 HA        1 <0>        0.00000
     46 H12         4.0668    2.6021    0.0000 HA        1 <0>        0.00000
     47 H13         4.7812    2.1896    0.0000 HA        1 <0>        0.00000
     48 H14         4.7812    1.3646    0.0000 HA        1 <0>        0.00000
     49 H15         4.0668    0.9521    0.0000 HA        1 <0>        0.00000
     50 H16         3.3523   -0.2854    0.0000 H         1 <0>        0.00000
     51 H17         2.6378   -1.5229    0.0000 H4        1 <0>        0.00000
     52 H18         4.7812   -1.1104    0.0000 HA        1 <0>        0.00000
     53 H19         5.4957   -1.5229    0.0000 HA        1 <0>        0.00000
     54 H20         6.2102   -2.7604    0.0000 HO        1 <0>        0.00000
     55 H21         4.7812   -2.7604    0.0000 HA        1 <0>        0.00000
     56 H22         4.0668   -2.3479    0.0000 HA        1 <0>        0.00000
@<TRIPOS>BOND
     1    1    2 1
     2    2    3 1
     3    3    4 1
     4    4    5 1
     5    5    6 ar
     6    6    7 ar
     7    7    8 ar
     8    8    9 1
     9    8   10 ar
    10   10   11 ar
    11    5   11 ar
    12    3   12 1
    13   12   13 2
    14   13   14 1
    15   14   15 1
    16   15   16 1
    17   16   17 ar
    18   17   18 ar
    19   18   19 ar
    20   19   20 ar
    21   20   21 ar
    22   16   21 ar
    23   14   22 1
    24   22   23 1
    25   23   24 2
    26   24   25 1
    27   13   25 1
    28   25   26 am
    29    3   26 1
    30   26   27 2
    31   23   28 1
    32   28   29 ar
    33   29   30 ar
    34   30   31 ar
    35   31   32 1
    36   31   33 ar
    37   33   34 ar
    38   28   34 ar
    39    1   35 1
    40    4   36 1
    41    4   37 1
    42    6   38 1
    43    7   39 1
    44   10   40 1
    45   11   41 1
    46   14   42 1
    47   15   43 1
    48   15   44 1
    49   17   45 1
    50   18   46 1
    51   19   47 1
    52   20   48 1
    53   21   49 1
    54   22   50 1
    55   24   51 1
    56   29   52 1
    57   30   53 1
    58   32   54 1
    59   33   55 1
    60   34   56 1
@<TRIPOS>SUBSTRUCTURE
     1 <0>         1 GROUP 0 A     ****
@<TRIPOS>MOLECULE
MiniDrugBank_79
   19    19     1     0     0
SMALL
NO_CHARGES

@<TRIPOS>ATOM
      1 C1          2.1434    2.0625    0.0000 CT        1 <0>        0.00000
      2 O1          2.1434    1.2375    0.0000 OS        1 <0>        0.00000
      3 C2          1.4289    0.8250    0.0000 CA        1 <0>        0.00000
      4 C3          1.4289    0.0000    0.0000 CA        1 <0>        0.00000
      5 C4          0.7145   -0.4125    0.0000 CA        1 <0>        0.00000
      6 O2          0.7145   -1.2375    0.0000 OS        1 <0>        0.00000
      7 O3          1.4289   -1.6500    0.0000 OH        1 <0>        0.00000
      8 C5          0.0000    0.0000    0.0000 CA        1 <0>        0.00000
      9 C6          0.0000    0.8250    0.0000 CA        1 <0>        0.00000
     10 C7          0.7145    1.2375    0.0000 CA        1 <0>        0.00000
     11 O4          0.7145    2.0625    0.0000 OH        1 <0>        0.00000
     12 H1          2.1434    2.0625    0.0000 H1        1 <0>        0.00000
     13 H2          2.1434    2.0625    0.0000 H1        1 <0>        0.00000
     14 H3          2.1434    2.0625    0.0000 H1        1 <0>        0.00000
     15 H4          1.4289    0.0000    0.0000 HA        1 <0>        0.00000
     16 H5          1.4289   -1.6500    0.0000 HO        1 <0>        0.00000
     17 H6          0.0000    0.0000    0.0000 HA        1 <0>        0.00000
     18 H7          0.0000    0.8250    0.0000 HA        1 <0>        0.00000
     19 H8          0.7145    2.0625    0.0000 HO        1 <0>        0.00000
@<TRIPOS>BOND
     1    1    2 1
     2    2    3 1
     3    3    4 ar
     4    4    5 ar
     5    5    6 1
     6    6    7 1
     7    5    8 ar
     8    8    9 ar
     9    9   10 ar
    10    3   10 ar
    11   10   11 1
    12    1   12 1
    13    1   13 1
    14    1   14 1
    15    4   15 1
    16    7   16 1
    17    8   17 1
    18    9   18 1
    19   11   19 1
@<TRIPOS>SUBSTRUCTURE
     1 <0>         1 GROUP 0 A     ****
@<TRIPOS>MOLECULE
LIA
   51    53     1     0     0
SMALL
NO_CHARGES

@<TRIPOS>ATOM
      1 N1          1.6834    2.4004    0.0000 N3        1 <0>        0.00000
      2 C1          1.6834    1.5754    0.0000 CT        1 <0>        0.00000
      3 C2          0.9689    1.1629    0.0000 CT        1 <0>        0.00000
      4 C3          0.2545    1.5754    0.0000 CT        1 <0>        0.00000
      5 C4          0.2545    2.4004    0.0000 CT        1 <0>        0.00000
      6 C5          0.9689    2.8129    0.0000 CT        1 <0>        0.00000
      7 N2         -0.4600    1.1629    0.0000 N2        1 <0>        0.00000
      8 C6         -0.4600    0.3379    0.0000 CA        1 <0>        0.00000
      9 N3         -1.1745   -0.0746    0.0000 NC        1 <0>        0.00000
     10 C7         -1.1745   -0.8996    0.0000 CA        1 <0>        0.00000
     11 C8         -0.4600   -1.3121    0.0000 CA        1 <0>        0.00000
     12 C9          0.2545   -0.8996    0.0000 CA        1 <0>        0.00000
     13 N4          0.2545   -0.0746    0.0000 NC        1 <0>        0.00000
     14 C10        -0.4600   -2.1371    0.0000 C         1 <0>        0.00000
     15 O1          0.2545   -2.5496    0.0000 O         1 <0>        0.00000
     16 C11        -1.1745   -2.5496    0.0000 CA        1 <0>        0.00000
     17 C12        -1.1745   -3.3746    0.0000 CA        1 <0>        0.00000
     18 C13        -1.8890   -3.7871    0.0000 CA        1 <0>        0.00000
     19 C14        -2.6034   -3.3746    0.0000 CA        1 <0>        0.00000
     20 C15        -2.6034   -2.5496    0.0000 CA        1 <0>        0.00000
     21 C16        -1.8890   -2.1371    0.0000 CA        1 <0>        0.00000
     22 O2         -1.8890   -1.3121    0.0000 OS        1 <0>        0.00000
     23 C17        -2.6034   -0.8996    0.0000 CT        1 <0>        0.00000
     24 F1         -0.4600   -3.7871    0.0000 F         1 <0>        0.00000
     25 F2         -1.8890   -4.6121    0.0000 F         1 <0>        0.00000
     26 N5          0.9689   -1.3121    0.0000 N2        1 <0>        0.00000
     27 S1          2.3979    2.8129    0.0000 SO        1 <0>        0.00000
     28 C18         3.1123    3.2254    0.0000 CT        1 <0>        0.00000
     29 O3          2.8104    2.0984    0.0000 O2        1 <0>        0.00000
     30 O4          1.9854    3.5273    0.0000 O2        1 <0>        0.00000
     31 H1          1.6834    1.5754    0.0000 H1        1 <0>        0.00000
     32 H2          1.6834    1.5754    0.0000 H1        1 <0>        0.00000
     33 H3          0.9689    1.1629    0.0000 HC        1 <0>        0.00000
     34 H4          0.9689    1.1629    0.0000 HC        1 <0>        0.00000
     35 H5          0.2545    1.5754    0.0000 H1        1 <0>        0.00000
     36 H6          0.2545    2.4004    0.0000 HC        1 <0>        0.00000
     37 H7          0.2545    2.4004    0.0000 HC        1 <0>        0.00000
     38 H8          0.9689    2.8129    0.0000 H1        1 <0>        0.00000
     39 H9          0.9689    2.8129    0.0000 H1        1 <0>        0.00000
     40 H10        -0.4600    1.1629    0.0000 H         1 <0>        0.00000
     41 H11        -1.1745   -0.8996    0.0000 H4        1 <0>        0.00000
     42 H12        -2.6034   -3.3746    0.0000 HA        1 <0>        0.00000
     43 H13        -2.6034   -2.5496    0.0000 HA        1 <0>        0.00000
     44 H14        -2.6034   -0.8996    0.0000 H1        1 <0>        0.00000
     45 H15        -2.6034   -0.8996    0.0000 H1        1 <0>        0.00000
     46 H16        -2.6034   -0.8996    0.0000 H1        1 <0>        0.00000
     47 H17         0.9689   -1.3121    0.0000 H         1 <0>        0.00000
     48 H18         0.9689   -1.3121    0.0000 H         1 <0>        0.00000
     49 H19         3.1123    3.2254    0.0000 H1        1 <0>        0.00000
     50 H20         3.1123    3.2254    0.0000 H1        1 <0>        0.00000
     51 H21         3.1123    3.2254    0.0000 H1        1 <0>        0.00000
@<TRIPOS>BOND
     1    1    2 1
     2    1    6 1
     3    1   27 1
     4    2    3 1
     5    3    4 1
     6    4    5 1
     7    4    7 1
     8    5    6 1
     9    7    8 1
    10    8    9 ar
    11    8   13 ar
    12    9   10 ar
    13   10   11 ar
    14   11   12 ar
    15   11   14 1
    16   12   13 ar
    17   12   26 1
    18   14   15 2
    19   14   16 1
    20   16   17 ar
    21   16   21 ar
    22   17   18 ar
    23   17   24 1
    24   18   19 ar
    25   18   25 1
    26   19   20 ar
    27   20   21 ar
    28   21   22 1
    29   22   23 1
    30   27   28 1
    31   27   29 2
    32   27   30 2
    33    2   31 1
    34    2   32 1
    35    3   33 1
    36    3   34 1
    37    4   35 1
    38    5   36 1
    39    5   37 1
    40    6   38 1
    41    6   39 1
    42    7   40 1
    43   10   41 1
    44   19   42 1
    45   20   43 1
    46   23   44 1
    47   23   45 1
    48   23   46 1
    49   26   47 1
    50   26   48 1
    51   28   49 1
    52   28   50 1
    53   28   51 1
@<TRIPOS>SUBSTRUCTURE
     1 <0>         1 GROUP 0 A     ****
@<TRIPOS>MOLECULE
MiniDrugBank_81
   60    65     1     0     0
SMALL
NO_CHARGES

@<TRIPOS>ATOM
      1 C1         -0.7145   -0.4125    0.0000 CT        1 <0>        0.00000
      2 C2          0.0000    0.0000    0.0000 CA        1 <0>        0.00000
      3 C3          0.0000    0.8250    0.0000 CA        1 <0>        0.00000
      4 C4          0.7145    1.2375    0.0000 CA        1 <0>        0.00000
      5 C5          1.4289    0.8250    0.0000 CA        1 <0>        0.00000
      6 C6          2.2136    1.0799    0.0000 C         1 <0>        0.00000
      7 O1          2.4685    1.8646    0.0000 O         1 <0>        0.00000
      8 C7          2.6985    0.4125    0.0000 CT        1 <0>        0.00000
      9 O2          3.1834    1.0799    0.0000 OS        1 <0>        0.00000
     10 C8          3.9680    0.8250    0.0000 CT        1 <0>        0.00000
     11 C9          3.9680    0.0000    0.0000 CT        1 <0>        0.00000
     12 C10         3.1834   -0.2549    0.0000 CT        1 <0>        0.00000
     13 C11         2.9285   -1.0396    0.0000 C         1 <0>        0.00000
     14 O3          2.1215   -1.2111    0.0000 OH        1 <0>        0.00000
     15 O4          3.4805   -1.6527    0.0000 O         1 <0>        0.00000
     16 C12         4.6355   -0.4849    0.0000 C         1 <0>        0.00000
     17 O5          4.5492   -1.3054    0.0000 O         1 <0>        0.00000
     18 N1          5.3891   -0.1494    0.0000 N         1 <0>        0.00000
     19 C13         6.0566   -0.6343    0.0000 CA        1 <0>        0.00000
     20 C14         6.8103   -0.2987    0.0000 CA        1 <0>        0.00000
     21 C15         7.4777   -0.7837    0.0000 CA        1 <0>        0.00000
     22 C16         7.3915   -1.6041    0.0000 CA        1 <0>        0.00000
     23 C17         6.6378   -1.9397    0.0000 CA        1 <0>        0.00000
     24 C18         5.9703   -1.4548    0.0000 CA        1 <0>        0.00000
     25 C19         8.0589   -2.0891    0.0000 CC        1 <0>        0.00000
     26 C20         8.8435   -1.8341    0.0000 CW        1 <0>        0.00000
     27 S1          9.3284   -2.5016    0.0000 S         1 <0>        0.00000
     28 N2          8.8435   -3.1690    0.0000 NB        1 <0>        0.00000
     29 N3          8.0589   -2.9141    0.0000 NB        1 <0>        0.00000
     30 C21         4.6355    1.3099    0.0000 CA        1 <0>        0.00000
     31 C22         4.5492    2.1304    0.0000 CA        1 <0>        0.00000
     32 C23         5.2167    2.6153    0.0000 CA        1 <0>        0.00000
     33 C24         5.9703    2.2798    0.0000 CA        1 <0>        0.00000
     34 Cl1         6.6378    2.7647    0.0000 CL        1 <0>        0.00000
     35 C25         6.0566    1.4593    0.0000 CA        1 <0>        0.00000
     36 Cl2         6.8103    1.1237    0.0000 CL        1 <0>        0.00000
     37 C26         5.3891    0.9744    0.0000 CA        1 <0>        0.00000
     38 C27         2.2136   -0.2549    0.0000 C         1 <0>        0.00000
     39 O6          1.7286   -0.9224    0.0000 O         1 <0>        0.00000
     40 C28         1.4289    0.0000    0.0000 CA        1 <0>        0.00000
     41 C29         0.7145   -0.4125    0.0000 CA        1 <0>        0.00000
     42 H1         -0.7145   -0.4125    0.0000 HC        1 <0>        0.00000
     43 H2         -0.7145   -0.4125    0.0000 HC        1 <0>        0.00000
     44 H3         -0.7145   -0.4125    0.0000 HC        1 <0>        0.00000
     45 H4          0.0000    0.8250    0.0000 HA        1 <0>        0.00000
     46 H5          0.7145    1.2375    0.0000 HA        1 <0>        0.00000
     47 H6          3.9680    0.8250    0.0000 H1        1 <0>        0.00000
     48 H7          3.9680    0.0000    0.0000 HC        1 <0>        0.00000
     49 H8          3.1834   -0.2549    0.0000 HC        1 <0>        0.00000
     50 H9          2.1215   -1.2111    0.0000 HO        1 <0>        0.00000
     51 H10         5.3891   -0.1494    0.0000 H         1 <0>        0.00000
     52 H11         6.8103   -0.2987    0.0000 HA        1 <0>        0.00000
     53 H12         7.4777   -0.7837    0.0000 HA        1 <0>        0.00000
     54 H13         6.6378   -1.9397    0.0000 HA        1 <0>        0.00000
     55 H14         5.9703   -1.4548    0.0000 HA        1 <0>        0.00000
     56 H15         8.8435   -1.8341    0.0000 H4        1 <0>        0.00000
     57 H16         4.5492    2.1304    0.0000 HA        1 <0>        0.00000
     58 H17         5.2167    2.6153    0.0000 HA        1 <0>        0.00000
     59 H18         5.3891    0.9744    0.0000 HA        1 <0>        0.00000
     60 H19         0.7145   -0.4125    0.0000 HA        1 <0>        0.00000
@<TRIPOS>BOND
     1    1    2 1
     2    2    3 ar
     3    3    4 ar
     4    4    5 ar
     5    5    6 1
     6    6    7 2
     7    6    8 1
     8    8    9 1
     9    9   10 1
    10   10   11 1
    11   11   12 1
    12    8   12 1
    13   12   13 1
    14   13   14 1
    15   13   15 2
    16   11   16 1
    17   16   17 2
    18   16   18 am
    19   18   19 1
    20   19   20 ar
    21   20   21 ar
    22   21   22 ar
    23   22   23 ar
    24   23   24 ar
    25   19   24 ar
    26   22   25 1
    27   25   26 2
    28   26   27 1
    29   27   28 1
    30   28   29 2
    31   25   29 1
    32   10   30 1
    33   30   31 ar
    34   31   32 ar
    35   32   33 ar
    36   33   34 1
    37   33   35 ar
    38   35   36 1
    39   35   37 ar
    40   30   37 ar
    41    8   38 1
    42   38   39 2
    43   38   40 1
    44    5   40 ar
    45   40   41 ar
    46    2   41 ar
    47    1   42 1
    48    1   43 1
    49    1   44 1
    50    3   45 1
    51    4   46 1
    52   10   47 1
    53   11   48 1
    54   12   49 1
    55   14   50 1
    56   18   51 1
    57   20   52 1
    58   21   53 1
    59   23   54 1
    60   24   55 1
    61   26   56 1
    62   31   57 1
    63   32   58 1
    64   37   59 1
    65   41   60 1
@<TRIPOS>SUBSTRUCTURE
     1 <0>         1 GROUP 0 A     ****
@<TRIPOS>MOLECULE
UDT
   36    35     1     0     0
SMALL
NO_CHARGES

@<TRIPOS>ATOM
      1 C1         -2.7046    0.3064    0.0000 CT        1 <0>        0.00000
      2 C2         -1.9901   -0.1061    0.0000 CT        1 <0>        0.00000
      3 C3         -1.2756    0.3064    0.0000 CT        1 <0>        0.00000
      4 C4         -0.5611   -0.1061    0.0000 CT        1 <0>        0.00000
      5 C5          0.1533    0.3064    0.0000 CT        1 <0>        0.00000
      6 C6          0.8678   -0.1061    0.0000 CT        1 <0>        0.00000
      7 C7          1.5823    0.3064    0.0000 CT        1 <0>        0.00000
      8 C8          2.2967   -0.1061    0.0000 CT        1 <0>        0.00000
      9 C9          3.0112    0.3064    0.0000 CT        1 <0>        0.00000
     10 C10         3.7257   -0.1061    0.0000 CT        1 <0>        0.00000
     11 O1          4.4402    0.3064    0.0000 OS        1 <0>        0.00000
     12 C11         5.1546   -0.1061    0.0000 C         1 <0>        0.00000
     13 O2          5.8691    0.3064    0.0000 O         1 <0>        0.00000
     14 S1          5.1546   -0.9311    0.0000 SH        1 <0>        0.00000
     15 H1         -2.7046    0.3064    0.0000 HC        1 <0>        0.00000
     16 H2         -2.7046    0.3064    0.0000 HC        1 <0>        0.00000
     17 H3         -2.7046    0.3064    0.0000 HC        1 <0>        0.00000
     18 H4         -1.9901   -0.1061    0.0000 HC        1 <0>        0.00000
     19 H5         -1.9901   -0.1061    0.0000 HC        1 <0>        0.00000
     20 H6         -1.2756    0.3064    0.0000 HC        1 <0>        0.00000
     21 H7         -1.2756    0.3064    0.0000 HC        1 <0>        0.00000
     22 H8         -0.5611   -0.1061    0.0000 HC        1 <0>        0.00000
     23 H9         -0.5611   -0.1061    0.0000 HC        1 <0>        0.00000
     24 H10         0.1533    0.3064    0.0000 HC        1 <0>        0.00000
     25 H11         0.1533    0.3064    0.0000 HC        1 <0>        0.00000
     26 H12         0.8678   -0.1061    0.0000 HC        1 <0>        0.00000
     27 H13         0.8678   -0.1061    0.0000 HC        1 <0>        0.00000
     28 H14         1.5823    0.3064    0.0000 HC        1 <0>        0.00000
     29 H15         1.5823    0.3064    0.0000 HC        1 <0>        0.00000
     30 H16         2.2967   -0.1061    0.0000 HC        1 <0>        0.00000
     31 H17         2.2967   -0.1061    0.0000 HC        1 <0>        0.00000
     32 H18         3.0112    0.3064    0.0000 HC        1 <0>        0.00000
     33 H19         3.0112    0.3064    0.0000 HC        1 <0>        0.00000
     34 H20         3.7257   -0.1061    0.0000 H1        1 <0>        0.00000
     35 H21         3.7257   -0.1061    0.0000 H1        1 <0>        0.00000
     36 H22         5.1546   -0.9311    0.0000 HS        1 <0>        0.00000
@<TRIPOS>BOND
     1    1    2 1
     2    2    3 1
     3    3    4 1
     4    4    5 1
     5    5    6 1
     6    6    7 1
     7    7    8 1
     8    8    9 1
     9    9   10 1
    10   10   11 1
    11   11   12 1
    12   12   14 1
    13   12   13 2
    14    1   15 1
    15    1   16 1
    16    1   17 1
    17    2   18 1
    18    2   19 1
    19    3   20 1
    20    3   21 1
    21    4   22 1
    22    4   23 1
    23    5   24 1
    24    5   25 1
    25    6   26 1
    26    6   27 1
    27    7   28 1
    28    7   29 1
    29    8   30 1
    30    8   31 1
    31    9   32 1
    32    9   33 1
    33   10   34 1
    34   10   35 1
    35   14   36 1
@<TRIPOS>SUBSTRUCTURE
     1 <0>         1 GROUP 0 A     ****
@<TRIPOS>MOLECULE
698
   62    64     1     0     0
SMALL
NO_CHARGES

@<TRIPOS>ATOM
      1 O1         -0.2788    2.5553    0.0000 O         1 <0>        0.00000
      2 C1         -0.9933    2.1428    0.0000 C         1 <0>        0.00000
      3 O2         -1.7077    2.5553    0.0000 OH        1 <0>        0.00000
      4 C2         -0.9933    1.3178    0.0000 CT        1 <0>        0.00000
      5 C3         -1.6607    0.8329    0.0000 CT        1 <0>        0.00000
      6 C4         -2.4453    1.0878    0.0000 CR        1 <0>        0.00000
      7 N1         -2.7003    1.8724    0.0000 NB        1 <0>        0.00000
      8 C5         -3.5253    1.8724    0.0000 CC        1 <0>        0.00000
      9 C6         -3.7802    1.0878    0.0000 CW        1 <0>        0.00000
     10 S1         -3.1128    0.6029    0.0000 S         1 <0>        0.00000
     11 C7         -0.3258    0.8329    0.0000 CT        1 <0>        0.00000
     12 C8         -0.5808    0.0483    0.0000 CT        1 <0>        0.00000
     13 C9         -0.6670   -0.7722    0.0000 CT        1 <0>        0.00000
     14 C10         0.0004   -1.2571    0.0000 CT        1 <0>        0.00000
     15 C11        -0.0858   -2.0776    0.0000 CT        1 <0>        0.00000
     16 C12         0.7541   -0.9216    0.0000 CT        1 <0>        0.00000
     17 C13         0.2262   -0.1233    0.0000 C         1 <0>        0.00000
     18 O3          0.8936   -0.6082    0.0000 O         1 <0>        0.00000
     19 O4          0.7782    0.4898    0.0000 OH        1 <0>        0.00000
     20 N2         -1.4058    0.0483    0.0000 N         1 <0>        0.00000
     21 C14        -1.8907   -0.6192    0.0000 C         1 <0>        0.00000
     22 O5         -1.5551   -1.3728    0.0000 O         1 <0>        0.00000
     23 C15        -2.7112   -0.5329    0.0000 CA        1 <0>        0.00000
     24 C16        -3.0467    0.2207    0.0000 CA        1 <0>        0.00000
     25 C17        -3.8672    0.3070    0.0000 CA        1 <0>        0.00000
     26 C18        -3.1961   -1.2004    0.0000 CA        1 <0>        0.00000
     27 C19        -4.0166   -1.1141    0.0000 CA        1 <0>        0.00000
     28 C20        -4.3521   -0.3605    0.0000 CA        1 <0>        0.00000
     29 C21        -5.1726   -0.2742    0.0000 CT        1 <0>        0.00000
     30 C22        -5.9931   -0.1880    0.0000 CT        1 <0>        0.00000
     31 C23        -5.0864    0.5462    0.0000 CT        1 <0>        0.00000
     32 C24        -5.2588   -1.0947    0.0000 CT        1 <0>        0.00000
     33 H1         -1.5135    1.5829    0.0000 HC        1 <0>        0.00000
     34 H2         -1.7520    1.4096    0.0000 H1        1 <0>        0.00000
     35 H3         -1.7077    2.5553    0.0000 HO        1 <0>        0.00000
     36 H4         -3.5253    1.8724    0.0000 H4        1 <0>        0.00000
     37 H5         -3.7802    1.0878    0.0000 H4        1 <0>        0.00000
     38 H6         -0.3258    0.8329    0.0000 HC        1 <0>        0.00000
     39 H7         -0.3258    0.8329    0.0000 HC        1 <0>        0.00000
     40 H8         -0.6670   -0.7722    0.0000 HC        1 <0>        0.00000
     41 H9         -0.6670   -0.7722    0.0000 HC        1 <0>        0.00000
     42 H10         0.0004   -1.2571    0.0000 HC        1 <0>        0.00000
     43 H11        -0.0858   -2.0776    0.0000 HC        1 <0>        0.00000
     44 H12        -0.0858   -2.0776    0.0000 HC        1 <0>        0.00000
     45 H13        -0.0858   -2.0776    0.0000 HC        1 <0>        0.00000
     46 H14         0.7541   -0.9216    0.0000 HC        1 <0>        0.00000
     47 H15         0.7541   -0.9216    0.0000 HC        1 <0>        0.00000
     48 H16         0.7541   -0.9216    0.0000 HC        1 <0>        0.00000
     49 H17         0.7782    0.4898    0.0000 HO        1 <0>        0.00000
     50 H18        -3.0467    0.2207    0.0000 HA        1 <0>        0.00000
     51 H19        -3.8672    0.3070    0.0000 HA        1 <0>        0.00000
     52 H20        -3.1961   -1.2004    0.0000 HA        1 <0>        0.00000
     53 H21        -4.0166   -1.1141    0.0000 HA        1 <0>        0.00000
     54 H22        -5.9931   -0.1880    0.0000 HC        1 <0>        0.00000
     55 H23        -5.9931   -0.1880    0.0000 HC        1 <0>        0.00000
     56 H24        -5.9931   -0.1880    0.0000 HC        1 <0>        0.00000
     57 H25        -5.0864    0.5462    0.0000 HC        1 <0>        0.00000
     58 H26        -5.0864    0.5462    0.0000 HC        1 <0>        0.00000
     59 H27        -5.0864    0.5462    0.0000 HC        1 <0>        0.00000
     60 H28        -5.2588   -1.0947    0.0000 HC        1 <0>        0.00000
     61 H29        -5.2588   -1.0947    0.0000 HC        1 <0>        0.00000
     62 H30        -5.2588   -1.0947    0.0000 HC        1 <0>        0.00000
@<TRIPOS>BOND
     1    1    2 2
     2    2    3 1
     3    2    4 1
     4    4   33 1
     5    4    5 1
     6    4   11 1
     7    5   34 1
     8    5    6 1
     9    5   20 1
    10    6    7 2
    11    6   10 1
    12    7    8 1
    13    8    9 2
    14    9   10 1
    15   11   12 1
    16   12   13 1
    17   12   17 1
    18   12   20 1
    19   13   14 1
    20   14   15 1
    21   14   16 1
    22   17   18 2
    23   17   19 1
    24   20   21 am
    25   21   22 2
    26   21   23 1
    27   23   26 ar
    28   23   24 ar
    29   24   25 ar
    30   25   28 ar
    31   26   27 ar
    32   27   28 ar
    33   28   29 1
    34   29   30 1
    35   29   31 1
    36   29   32 1
    37    3   35 1
    38    8   36 1
    39    9   37 1
    40   11   38 1
    41   11   39 1
    42   13   40 1
    43   13   41 1
    44   14   42 1
    45   15   43 1
    46   15   44 1
    47   15   45 1
    48   16   46 1
    49   16   47 1
    50   16   48 1
    51   19   49 1
    52   24   50 1
    53   25   51 1
    54   26   52 1
    55   27   53 1
    56   30   54 1
    57   30   55 1
    58   30   56 1
    59   31   57 1
    60   31   58 1
    61   31   59 1
    62   32   60 1
    63   32   61 1
    64   32   62 1
@<TRIPOS>SUBSTRUCTURE
     1 <0>         1 GROUP 0 A     ****
@<TRIPOS>MOLECULE
823
   60    63     1     0     0
SMALL
NO_CHARGES

@<TRIPOS>ATOM
      1 O1          8.9774    0.8591    0.0000 OS        1 <0>        0.00000
      2 O2          3.0790   -2.3944    0.0000 OS        1 <0>        0.00000
      3 O3          9.8152   -0.2985    0.0000 O         1 <0>        0.00000
      4 O4          2.3693   -1.1541    0.0000 O         1 <0>        0.00000
      5 C1          7.5284    0.1238    0.0000 CT        1 <0>        0.00000
      6 C2          7.5284   -0.7012    0.0000 CT        1 <0>        0.00000
      7 C3          6.8139   -1.1137    0.0000 CT        1 <0>        0.00000
      8 C4          6.0994   -0.7012    0.0000 CT        1 <0>        0.00000
      9 C5          8.3090    0.3753    0.0000 CT        1 <0>        0.00000
     10 C6          6.8139    0.5363    0.0000 CT        1 <0>        0.00000
     11 C7          8.3090   -0.9526    0.0000 CT        1 <0>        0.00000
     12 C8          6.0994    0.1238    0.0000 CT        1 <0>        0.00000
     13 C9          5.3487   -1.1193    0.0000 CT        1 <0>        0.00000
     14 C10         8.7906   -0.2887    0.0000 CT        1 <0>        0.00000
     15 C11         6.8272   -1.9729    0.0000 CT        1 <0>        0.00000
     16 C12         7.5284    0.9489    0.0000 CT        1 <0>        0.00000
     17 C13         5.3420   -1.9786    0.0000 CM        1 <0>        0.00000
     18 C14         6.0862   -2.4083    0.0000 CT        1 <0>        0.00000
     19 C15         4.5840   -0.6539    0.0000 CT        1 <0>        0.00000
     20 C16         3.8019   -1.0895    0.0000 CT        1 <0>        0.00000
     21 C17         8.0555    1.1604    0.0000 C2        1 <0>        0.00000
     22 C18         4.5703   -2.4322    0.0000 CM        1 <0>        0.00000
     23 C19         3.7951   -1.9846    0.0000 CT        1 <0>        0.00000
     24 C20         9.7304    0.5222    0.0000 C         1 <0>        0.00000
     25 C21         7.8019    1.9454    0.0000 C2        1 <0>        0.00000
     26 C22        10.3987    1.0059    0.0000 CT        1 <0>        0.00000
     27 C23         2.3661   -1.9791    0.0000 C         1 <0>        0.00000
     28 C24         1.6500   -2.3888    0.0000 CT        1 <0>        0.00000
     29 H1          7.5983   -1.3575    0.0000 HC        1 <0>        0.00000
     30 H2          7.3880   -1.4392    0.0000 HC        1 <0>        0.00000
     31 H3          6.6710   -0.3712    0.0000 HC        1 <0>        0.00000
     32 H4          5.3614   -0.4595    0.0000 HC        1 <0>        0.00000
     33 H5          6.8139    0.5363    0.0000 HC        1 <0>        0.00000
     34 H6          6.8139    0.5363    0.0000 HC        1 <0>        0.00000
     35 H7          8.3090   -0.9526    0.0000 HC        1 <0>        0.00000
     36 H8          8.3090   -0.9526    0.0000 HC        1 <0>        0.00000
     37 H9          6.0994    0.1238    0.0000 HC        1 <0>        0.00000
     38 H10         6.0994    0.1238    0.0000 HC        1 <0>        0.00000
     39 H11         8.7906   -0.2887    0.0000 HC        1 <0>        0.00000
     40 H12         8.7906   -0.2887    0.0000 HC        1 <0>        0.00000
     41 H13         6.8272   -1.9729    0.0000 HC        1 <0>        0.00000
     42 H14         6.8272   -1.9729    0.0000 HC        1 <0>        0.00000
     43 H15         7.5284    0.9489    0.0000 HC        1 <0>        0.00000
     44 H16         7.5284    0.9489    0.0000 HC        1 <0>        0.00000
     45 H17         7.5284    0.9489    0.0000 HC        1 <0>        0.00000
     46 H18         6.0862   -2.4083    0.0000 HC        1 <0>        0.00000
     47 H19         6.0862   -2.4083    0.0000 HC        1 <0>        0.00000
     48 H20         4.5840   -0.6539    0.0000 HC        1 <0>        0.00000
     49 H21         4.5840   -0.6539    0.0000 HC        1 <0>        0.00000
     50 H22         3.8019   -1.0895    0.0000 HC        1 <0>        0.00000
     51 H23         3.8019   -1.0895    0.0000 HC        1 <0>        0.00000
     52 H24         4.5703   -2.4322    0.0000 HA        1 <0>        0.00000
     53 H25         3.7951   -1.9846    0.0000 H1        1 <0>        0.00000
     54 H26         7.8019    1.9454    0.0000 HC        1 <0>        0.00000
     55 H27        10.3987    1.0059    0.0000 HC        1 <0>        0.00000
     56 H28        10.3987    1.0059    0.0000 HC        1 <0>        0.00000
     57 H29        10.3987    1.0059    0.0000 HC        1 <0>        0.00000
     58 H30         1.6500   -2.3888    0.0000 HC        1 <0>        0.00000
     59 H31         1.6500   -2.3888    0.0000 HC        1 <0>        0.00000
     60 H32         1.6500   -2.3888    0.0000 HC        1 <0>        0.00000
@<TRIPOS>BOND
     1    1    9 1
     2    1   24 1
     3    2   23 1
     4    2   27 1
     5    3   24 2
     6    4   27 2
     7    5    6 1
     8    5    9 1
     9    5   10 1
    10    5   16 1
    11    6    7 1
    12    6   11 1
    13    6   29 1
    14    7    8 1
    15    7   15 1
    16    7   30 1
    17    8   12 1
    18    8   13 1
    19    8   31 1
    20    9   14 1
    21    9   21 1
    22   10   12 1
    23   11   14 1
    24   13   17 1
    25   13   19 1
    26   13   32 1
    27   15   18 1
    28   17   18 1
    29   17   22 2
    30   19   20 1
    31   20   23 1
    32   21   25 3
    33   22   23 1
    34   24   26 1
    35   27   28 1
    36   10   33 1
    37   10   34 1
    38   11   35 1
    39   11   36 1
    40   12   37 1
    41   12   38 1
    42   14   39 1
    43   14   40 1
    44   15   41 1
    45   15   42 1
    46   16   43 1
    47   16   44 1
    48   16   45 1
    49   18   46 1
    50   18   47 1
    51   19   48 1
    52   19   49 1
    53   20   50 1
    54   20   51 1
    55   22   52 1
    56   23   53 1
    57   25   54 1
    58   26   55 1
    59   26   56 1
    60   26   57 1
    61   28   58 1
    62   28   59 1
    63   28   60 1
@<TRIPOS>SUBSTRUCTURE
     1 <0>         1 GROUP 0 A     ****
@<TRIPOS>MOLECULE
TOX
   30    31     1     0     0
SMALL
NO_CHARGES

@<TRIPOS>ATOM
      1 N1         -1.6942   -0.4694    0.0000 N3        1 <0>        0.00000
      2 C1         -2.5012   -0.6410    0.0000 CT        1 <0>        0.00000
      3 C2         -3.0532   -0.0279    0.0000 CT        1 <0>        0.00000
      4 C3         -2.7983    0.7568    0.0000 CC        1 <0>        0.00000
      5 C4         -3.2832    1.4242    0.0000 CW        1 <0>        0.00000
      6 N2         -2.7983    2.0916    0.0000 N*        1 <0>        0.00000
      7 C5         -2.0137    1.8367    0.0000 CB        1 <0>        0.00000
      8 C6         -2.0137    1.0117    0.0000 CB        1 <0>        0.00000
      9 C7         -1.2992    0.5992    0.0000 CA        1 <0>        0.00000
     10 C8         -0.5847    1.0117    0.0000 CA        1 <0>        0.00000
     11 C9         -0.5847    1.8367    0.0000 CA        1 <0>        0.00000
     12 C10        -1.2992    2.2492    0.0000 CA        1 <0>        0.00000
     13 C11        -2.7561   -1.4256    0.0000 CT        1 <0>        0.00000
     14 O1         -2.2041   -2.0387    0.0000 OH        1 <0>        0.00000
     15 O2         -2.5012    3.4893    0.0000 OH        1 <0>        0.00000
     16 O3         -3.0532    2.8763    0.0000 OS        1 <0>        0.00000
     17 H1         -2.1105   -1.0749    0.0000 H1        1 <0>        0.00000
     18 H2         -1.6942   -0.4694    0.0000 H         1 <0>        0.00000
     19 H3         -1.6942   -0.4694    0.0000 H         1 <0>        0.00000
     20 H4         -3.0532   -0.0279    0.0000 HC        1 <0>        0.00000
     21 H5         -3.0532   -0.0279    0.0000 HC        1 <0>        0.00000
     22 H6         -3.2832    1.4242    0.0000 H4        1 <0>        0.00000
     23 H7         -1.2992    0.5992    0.0000 HA        1 <0>        0.00000
     24 H8         -0.5847    1.0117    0.0000 HA        1 <0>        0.00000
     25 H9         -0.5847    1.8367    0.0000 HA        1 <0>        0.00000
     26 H10        -1.2992    2.2492    0.0000 HA        1 <0>        0.00000
     27 H11        -2.7561   -1.4256    0.0000 H1        1 <0>        0.00000
     28 H12        -2.7561   -1.4256    0.0000 H1        1 <0>        0.00000
     29 H13        -2.2041   -2.0387    0.0000 HO        1 <0>        0.00000
     30 H14        -2.5012    3.4893    0.0000 HO        1 <0>        0.00000
@<TRIPOS>BOND
     1    1    2 1
     2    2   13 1
     3    2    3 1
     4    2   17 1
     5    3    4 1
     6    4    5 2
     7    4    8 1
     8    5    6 1
     9    6   16 1
    10    6    7 1
    11    7   12 ar
    12    7    8 ar
    13    8    9 ar
    14    9   10 ar
    15   10   11 ar
    16   11   12 ar
    17   13   14 1
    18   15   16 1
    19    1   18 1
    20    1   19 1
    21    3   20 1
    22    3   21 1
    23    5   22 1
    24    9   23 1
    25   10   24 1
    26   11   25 1
    27   12   26 1
    28   13   27 1
    29   13   28 1
    30   14   29 1
    31   15   30 1
@<TRIPOS>SUBSTRUCTURE
     1 <0>         1 GROUP 0 A     ****
@<TRIPOS>MOLECULE
740
   59    63     1     0     0
SMALL
NO_CHARGES

@<TRIPOS>ATOM
      1 C1         -3.1901   -1.0934    0.0000 CA        1 <0>        0.00000
      2 C2         -2.6381   -1.7065    0.0000 CA        1 <0>        0.00000
      3 C3         -1.8311   -1.5350    0.0000 CA        1 <0>        0.00000
      4 C4         -1.5762   -0.7504    0.0000 CA        1 <0>        0.00000
      5 C5         -2.1282   -0.1373    0.0000 CA        1 <0>        0.00000
      6 C6         -2.9352   -0.3088    0.0000 CA        1 <0>        0.00000
      7 C7         -0.7692   -0.5789    0.0000 CT        1 <0>        0.00000
      8 C8         -0.5143    0.2058    0.0000 C         1 <0>        0.00000
      9 N1          0.2927    0.3773    0.0000 N         1 <0>        0.00000
     10 C9          0.5476    1.1619    0.0000 CR        1 <0>        0.00000
     11 N2          0.0627    1.8293    0.0000 NB        1 <0>        0.00000
     12 N3          0.5476    2.4968    0.0000 NA        1 <0>        0.00000
     13 C10         1.3323    2.2418    0.0000 CB        1 <0>        0.00000
     14 C11         2.0467    2.6543    0.0000 CA        1 <0>        0.00000
     15 C12         2.7612    2.2418    0.0000 CA        1 <0>        0.00000
     16 C13         2.7612    1.4168    0.0000 CA        1 <0>        0.00000
     17 C14         2.0467    1.0043    0.0000 CA        1 <0>        0.00000
     18 C15         1.3323    1.4168    0.0000 CB        1 <0>        0.00000
     19 N4          3.4757    1.0043    0.0000 N3        1 <0>        0.00000
     20 C16         4.2293    1.3399    0.0000 CT        1 <0>        0.00000
     21 O1         -1.0663    0.8189    0.0000 O         1 <0>        0.00000
     22 C17         4.7814    0.7268    0.0000 CT        1 <0>        0.00000
     23 S1          3.5619    0.1839    0.0000 SO        1 <0>        0.00000
     24 C18         4.3689    0.0123    0.0000 CT        1 <0>        0.00000
     25 O2          2.7568    0.0039    0.0000 O2        1 <0>        0.00000
     26 O3          3.2988   -0.5980    0.0000 O2        1 <0>        0.00000
     27 C19        -4.2520   -2.0496    0.0000 CT        1 <0>        0.00000
     28 N5         -3.9971   -1.2650    0.0000 N3        1 <0>        0.00000
     29 C20        -4.5491   -0.6519    0.0000 CT        1 <0>        0.00000
     30 C21        -5.3561   -0.8234    0.0000 CT        1 <0>        0.00000
     31 C22        -5.6110   -1.6080    0.0000 CT        1 <0>        0.00000
     32 C23        -5.0590   -2.2211    0.0000 CT        1 <0>        0.00000
     33 H1         -2.6381   -1.7065    0.0000 HA        1 <0>        0.00000
     34 H2         -1.8311   -1.5350    0.0000 HA        1 <0>        0.00000
     35 H3         -2.1282   -0.1373    0.0000 HA        1 <0>        0.00000
     36 H4         -2.9352   -0.3088    0.0000 HA        1 <0>        0.00000
     37 H5         -0.7692   -0.5789    0.0000 HC        1 <0>        0.00000
     38 H6         -0.7692   -0.5789    0.0000 HC        1 <0>        0.00000
     39 H7          0.2927    0.3773    0.0000 H         1 <0>        0.00000
     40 H8          0.5476    2.4968    0.0000 H         1 <0>        0.00000
     41 H9          2.0467    2.6543    0.0000 HA        1 <0>        0.00000
     42 H10         2.7612    2.2418    0.0000 HA        1 <0>        0.00000
     43 H11         2.0467    1.0043    0.0000 HA        1 <0>        0.00000
     44 H12         4.2293    1.3399    0.0000 H1        1 <0>        0.00000
     45 H13         4.2293    1.3399    0.0000 H1        1 <0>        0.00000
     46 H14         4.7814    0.7268    0.0000 HC        1 <0>        0.00000
     47 H15         4.7814    0.7268    0.0000 HC        1 <0>        0.00000
     48 H16         4.3689    0.0123    0.0000 H1        1 <0>        0.00000
     49 H17         4.3689    0.0123    0.0000 H1        1 <0>        0.00000
     50 H18        -4.2520   -2.0496    0.0000 H1        1 <0>        0.00000
     51 H19        -4.2520   -2.0496    0.0000 H1        1 <0>        0.00000
     52 H20        -4.5491   -0.6519    0.0000 H1        1 <0>        0.00000
     53 H21        -4.5491   -0.6519    0.0000 H1        1 <0>        0.00000
     54 H22        -5.3561   -0.8234    0.0000 HC        1 <0>        0.00000
     55 H23        -5.3561   -0.8234    0.0000 HC        1 <0>        0.00000
     56 H24        -5.6110   -1.6080    0.0000 HC        1 <0>        0.00000
     57 H25        -5.6110   -1.6080    0.0000 HC        1 <0>        0.00000
     58 H26        -5.0590   -2.2211    0.0000 HC        1 <0>        0.00000
     59 H27        -5.0590   -2.2211    0.0000 HC        1 <0>        0.00000
@<TRIPOS>BOND
     1    1    6 ar
     2    1    2 ar
     3    1   28 1
     4    2    3 ar
     5    3    4 ar
     6    4    7 1
     7    4    5 ar
     8    5    6 ar
     9    7    8 1
    10    8   21 2
    11    8    9 am
    12    9   10 1
    13   10   11 2
    14   10   18 1
    15   11   12 1
    16   12   13 1
    17   13   14 ar
    18   13   18 ar
    19   14   15 ar
    20   15   16 ar
    21   16   17 ar
    22   16   19 1
    23   17   18 ar
    24   19   20 1
    25   19   23 1
    26   20   22 1
    27   22   24 1
    28   23   24 1
    29   23   25 2
    30   23   26 2
    31   27   32 1
    32   27   28 1
    33   28   29 1
    34   29   30 1
    35   30   31 1
    36   31   32 1
    37    2   33 1
    38    3   34 1
    39    5   35 1
    40    6   36 1
    41    7   37 1
    42    7   38 1
    43    9   39 1
    44   12   40 1
    45   14   41 1
    46   15   42 1
    47   17   43 1
    48   20   44 1
    49   20   45 1
    50   22   46 1
    51   22   47 1
    52   24   48 1
    53   24   49 1
    54   27   50 1
    55   27   51 1
    56   29   52 1
    57   29   53 1
    58   30   54 1
    59   30   55 1
    60   31   56 1
    61   31   57 1
    62   32   58 1
    63   32   59 1
@<TRIPOS>SUBSTRUCTURE
     1 <0>         1 GROUP 0 A     ****
@<TRIPOS>MOLECULE
WAC
   57    60     1     0     0
SMALL
NO_CHARGES

@<TRIPOS>ATOM
      1 C1         -2.5396   -2.2721    0.0000 CA        1 <0>        0.00000
      2 C2         -1.8118   -1.8835    0.0000 CA        1 <0>        0.00000
      3 C3         -1.7845   -1.0589    0.0000 CB        1 <0>        0.00000
      4 C4         -2.4849   -0.6230    0.0000 CB        1 <0>        0.00000
      5 C5         -3.2127   -1.0116    0.0000 CA        1 <0>        0.00000
      6 C6         -3.2400   -1.8362    0.0000 CA        1 <0>        0.00000
      7 N1         -1.1535   -0.5275    0.0000 N*        1 <0>        0.00000
      8 C7         -1.4639    0.2369    0.0000 CW        1 <0>        0.00000
      9 C8         -2.2868    0.1778    0.0000 CC        1 <0>        0.00000
     10 C9         -1.1036    0.9790    0.0000 CT        1 <0>        0.00000
     11 N2         -1.5661    1.6621    0.0000 N3        1 <0>        0.00000
     12 C10        -2.3890    1.6031    0.0000 CT        1 <0>        0.00000
     13 C11        -2.7493    0.8610    0.0000 C         1 <0>        0.00000
     14 C12        -0.2807    1.0380    0.0000 CT        1 <0>        0.00000
     15 C13         0.0797    1.7802    0.0000 CT        1 <0>        0.00000
     16 C14        -0.3829    2.4633    0.0000 CT        1 <0>        0.00000
     17 C15        -1.2058    2.4043    0.0000 CT        1 <0>        0.00000
     18 C16        -0.3526   -0.7257    0.0000 CT        1 <0>        0.00000
     19 C17         0.2194   -0.1312    0.0000 CT        1 <0>        0.00000
     20 C18         1.0203   -0.3294    0.0000 CT        1 <0>        0.00000
     21 N3          1.5923    0.2651    0.0000 N3        1 <0>        0.00000
     22 S1          2.3931    0.0670    0.0000 SO        1 <0>        0.00000
     23 C19         3.1940   -0.1312    0.0000 CT        1 <0>        0.00000
     24 C20         3.7660    0.4633    0.0000 CT        1 <0>        0.00000
     25 C21         3.4228   -0.9238    0.0000 CT        1 <0>        0.00000
     26 O1          2.1950   -0.7339    0.0000 O2        1 <0>        0.00000
     27 O2          2.5913    0.8678    0.0000 O2        1 <0>        0.00000
     28 O3         -3.5722    0.8020    0.0000 O         1 <0>        0.00000
     29 H1         -0.7762    0.4955    0.0000 H1        1 <0>        0.00000
     30 H2         -2.5396   -2.2721    0.0000 HA        1 <0>        0.00000
     31 H3         -1.8118   -1.8835    0.0000 HA        1 <0>        0.00000
     32 H4         -3.2127   -1.0116    0.0000 HA        1 <0>        0.00000
     33 H5         -3.2400   -1.8362    0.0000 HA        1 <0>        0.00000
     34 H6         -2.3890    1.6031    0.0000 H1        1 <0>        0.00000
     35 H7         -2.3890    1.6031    0.0000 H1        1 <0>        0.00000
     36 H8         -0.2807    1.0380    0.0000 HC        1 <0>        0.00000
     37 H9         -0.2807    1.0380    0.0000 HC        1 <0>        0.00000
     38 H10         0.0797    1.7802    0.0000 HC        1 <0>        0.00000
     39 H11         0.0797    1.7802    0.0000 HC        1 <0>        0.00000
     40 H12        -0.3829    2.4633    0.0000 HC        1 <0>        0.00000
     41 H13        -0.3829    2.4633    0.0000 HC        1 <0>        0.00000
     42 H14        -1.2058    2.4043    0.0000 H1        1 <0>        0.00000
     43 H15        -1.2058    2.4043    0.0000 H1        1 <0>        0.00000
     44 H16        -0.3526   -0.7257    0.0000 H1        1 <0>        0.00000
     45 H17        -0.3526   -0.7257    0.0000 H1        1 <0>        0.00000
     46 H18         0.2194   -0.1312    0.0000 HC        1 <0>        0.00000
     47 H19         0.2194   -0.1312    0.0000 HC        1 <0>        0.00000
     48 H20         1.0203   -0.3294    0.0000 H1        1 <0>        0.00000
     49 H21         1.0203   -0.3294    0.0000 H1        1 <0>        0.00000
     50 H22         1.5923    0.2651    0.0000 H         1 <0>        0.00000
     51 H23         3.1940   -0.1312    0.0000 H1        1 <0>        0.00000
     52 H24         3.7660    0.4633    0.0000 HC        1 <0>        0.00000
     53 H25         3.7660    0.4633    0.0000 HC        1 <0>        0.00000
     54 H26         3.7660    0.4633    0.0000 HC        1 <0>        0.00000
     55 H27         3.4228   -0.9238    0.0000 HC        1 <0>        0.00000
     56 H28         3.4228   -0.9238    0.0000 HC        1 <0>        0.00000
     57 H29         3.4228   -0.9238    0.0000 HC        1 <0>        0.00000
@<TRIPOS>BOND
     1    1    2 ar
     2    1    6 ar
     3    2    3 ar
     4    3    4 ar
     5    3    7 1
     6    4    5 ar
     7    4    9 1
     8    5    6 ar
     9    7    8 1
    10    7   18 1
    11    8    9 2
    12    8   10 1
    13    9   13 1
    14   10   11 1
    15   10   14 1
    16   10   29 1
    17   11   12 1
    18   11   17 1
    19   12   13 1
    20   13   28 2
    21   14   15 1
    22   15   16 1
    23   16   17 1
    24   18   19 1
    25   19   20 1
    26   20   21 1
    27   21   22 1
    28   22   23 1
    29   22   26 2
    30   22   27 2
    31   23   24 1
    32   23   25 1
    33    1   30 1
    34    2   31 1
    35    5   32 1
    36    6   33 1
    37   12   34 1
    38   12   35 1
    39   14   36 1
    40   14   37 1
    41   15   38 1
    42   15   39 1
    43   16   40 1
    44   16   41 1
    45   17   42 1
    46   17   43 1
    47   18   44 1
    48   18   45 1
    49   19   46 1
    50   19   47 1
    51   20   48 1
    52   20   49 1
    53   21   50 1
    54   23   51 1
    55   24   52 1
    56   24   53 1
    57   24   54 1
    58   25   55 1
    59   25   56 1
    60   25   57 1
@<TRIPOS>SUBSTRUCTURE
     1 <0>         1 GROUP 0 A     ****
@<TRIPOS>MOLECULE
MiniDrugBank_88
   38    39     1     0     0
SMALL
NO_CHARGES

@<TRIPOS>ATOM
      1 C1          1.3222    7.2402    0.0000 CT        1 <0>        0.00000
      2 C2          2.0367    6.8277    0.0000 CA        1 <0>        0.00000
      3 N1          2.7512    7.2402    0.0000 NC        1 <0>        0.00000
      4 C3          3.4656    6.8277    0.0000 CA        1 <0>        0.00000
      5 C4          3.4656    6.0027    0.0000 CA        1 <0>        0.00000
      6 C5          4.1801    5.5902    0.0000 CT        1 <0>        0.00000
      7 O1          4.8946    6.0027    0.0000 OS        1 <0>        0.00000
      8 P1          5.6091    5.5902    0.0000 P         1 <0>        0.00000
      9 O2          6.3235    5.1777    0.0000 OH        1 <0>        0.00000
     10 O3          6.0216    6.3047    0.0000 OH        1 <0>        0.00000
     11 O4          5.1966    4.8757    0.0000 O         1 <0>        0.00000
     12 C6          2.7512    5.5902    0.0000 CA        1 <0>        0.00000
     13 C7          2.7512    4.7652    0.0000 CT        1 <0>        0.00000
     14 N2          3.4656    4.3527    0.0000 N3        1 <0>        0.00000
     15 C8          3.4656    3.5277    0.0000 CT        1 <0>        0.00000
     16 C9          4.1331    3.0428    0.0000 CT        1 <0>        0.00000
     17 O5          3.8781    2.2581    0.0000 OS        1 <0>        0.00000
     18 N3          3.0531    2.2581    0.0000 N         1 <0>        0.00000
     19 C10         2.7982    3.0428    0.0000 C         1 <0>        0.00000
     20 O6          2.0136    3.2977    0.0000 O         1 <0>        0.00000
     21 C11         2.0367    6.0027    0.0000 CA        1 <0>        0.00000
     22 O7          1.3222    5.5902    0.0000 OH        1 <0>        0.00000
     23 H1          1.3222    7.2402    0.0000 HC        1 <0>        0.00000
     24 H2          1.3222    7.2402    0.0000 HC        1 <0>        0.00000
     25 H3          1.3222    7.2402    0.0000 HC        1 <0>        0.00000
     26 H4          3.4656    6.8277    0.0000 H4        1 <0>        0.00000
     27 H5          4.1801    5.5902    0.0000 H1        1 <0>        0.00000
     28 H6          4.1801    5.5902    0.0000 H1        1 <0>        0.00000
     29 H7          6.3235    5.1777    0.0000 HO        1 <0>        0.00000
     30 H8          6.0216    6.3047    0.0000 HO        1 <0>        0.00000
     31 H9          2.7512    4.7652    0.0000 H1        1 <0>        0.00000
     32 H10         2.7512    4.7652    0.0000 H1        1 <0>        0.00000
     33 H11         3.4656    4.3527    0.0000 H         1 <0>        0.00000
     34 H12         3.4656    3.5277    0.0000 H1        1 <0>        0.00000
     35 H13         4.1331    3.0428    0.0000 H1        1 <0>        0.00000
     36 H14         4.1331    3.0428    0.0000 H1        1 <0>        0.00000
     37 H15         3.0531    2.2581    0.0000 H         1 <0>        0.00000
     38 H16         1.3222    5.5902    0.0000 HO        1 <0>        0.00000
@<TRIPOS>BOND
     1    1    2 1
     2    2    3 ar
     3    3    4 ar
     4    4    5 ar
     5    5    6 1
     6    6    7 1
     7    7    8 1
     8    8    9 1
     9    8   10 1
    10    8   11 2
    11    5   12 ar
    12   12   13 1
    13   13   14 1
    14   14   15 1
    15   15   16 1
    16   16   17 1
    17   17   18 1
    18   18   19 am
    19   15   19 1
    20   19   20 2
    21   12   21 ar
    22    2   21 ar
    23   21   22 1
    24    1   23 1
    25    1   24 1
    26    1   25 1
    27    4   26 1
    28    6   27 1
    29    6   28 1
    30    9   29 1
    31   10   30 1
    32   13   31 1
    33   13   32 1
    34   14   33 1
    35   15   34 1
    36   16   35 1
    37   16   36 1
    38   18   37 1
    39   22   38 1
@<TRIPOS>SUBSTRUCTURE
     1 <0>         1 GROUP 0 A     ****
@<TRIPOS>MOLECULE
MiniDrugBank_89
   26    26     1     0     0
SMALL
NO_CHARGES

@<TRIPOS>ATOM
      1 S1          2.6896   -3.0314    0.0000 S         1 <0>        0.00000
      2 S2          4.5311    0.7131    0.0000 S         1 <0>        0.00000
      3 O1          1.6500   -1.9918    0.0000 O         1 <0>        0.00000
      4 O2          4.5311   -0.9369    0.0000 O         1 <0>        0.00000
      5 O3          5.2455    2.7757    0.0000 OH        1 <0>        0.00000
      6 O4          5.9601    1.5382    0.0000 O         1 <0>        0.00000
      7 N1          3.1022   -0.9369    0.0000 N         1 <0>        0.00000
      8 C1          3.1022   -1.7619    0.0000 CT        1 <0>        0.00000
      9 C2          3.7696   -2.2469    0.0000 CT        1 <0>        0.00000
     10 C3          3.5147   -3.0314    0.0000 CT        1 <0>        0.00000
     11 C4          2.4347   -2.2469    0.0000 C         1 <0>        0.00000
     12 C5          3.8166   -0.5244    0.0000 C         1 <0>        0.00000
     13 C6          3.8166    0.3006    0.0000 CT        1 <0>        0.00000
     14 C7          4.5311    1.5382    0.0000 CT        1 <0>        0.00000
     15 C8          5.2455    1.9507    0.0000 C         1 <0>        0.00000
     16 H1          5.2455    2.7757    0.0000 HO        1 <0>        0.00000
     17 H2          3.1022   -0.9369    0.0000 H         1 <0>        0.00000
     18 H3          3.1022   -1.7619    0.0000 H1        1 <0>        0.00000
     19 H4          3.7696   -2.2469    0.0000 HC        1 <0>        0.00000
     20 H5          3.7696   -2.2469    0.0000 HC        1 <0>        0.00000
     21 H6          3.5147   -3.0314    0.0000 H1        1 <0>        0.00000
     22 H7          3.5147   -3.0314    0.0000 H1        1 <0>        0.00000
     23 H8          3.8166    0.3006    0.0000 H1        1 <0>        0.00000
     24 H9          3.8166    0.3006    0.0000 H1        1 <0>        0.00000
     25 H10         4.5311    1.5382    0.0000 H1        1 <0>        0.00000
     26 H11         4.5311    1.5382    0.0000 H1        1 <0>        0.00000
@<TRIPOS>BOND
     1    1   10 1
     2    1   11 1
     3    2   13 1
     4    2   14 1
     5    3   11 2
     6    4   12 2
     7    5   15 1
     8    6   15 2
     9    7    8 1
    10    7   12 am
    11    8    9 1
    12    8   11 1
    13    9   10 1
    14   12   13 1
    15   14   15 1
    16    5   16 1
    17    7   17 1
    18    8   18 1
    19    9   19 1
    20    9   20 1
    21   10   21 1
    22   10   22 1
    23   13   23 1
    24   13   24 1
    25   14   25 1
    26   14   26 1
@<TRIPOS>SUBSTRUCTURE
     1 <0>         1 GROUP 0 A     ****
@<TRIPOS>MOLECULE
47D
   33    35     1     0     0
SMALL
NO_CHARGES

@<TRIPOS>ATOM
      1 C1          2.9420    2.6754    0.0000 CB        1 <0>        0.00000
      2 N1          2.1573    2.9303    0.0000 NB        1 <0>        0.00000
      3 C2          1.6724    2.2629    0.0000 CR        1 <0>        0.00000
      4 C3          0.8474    2.2629    0.0000 CT        1 <0>        0.00000
      5 N2          0.4349    1.5484    0.0000 N         1 <0>        0.00000
      6 C4         -0.3901    1.5484    0.0000 C         1 <0>        0.00000
      7 O1         -0.8026    2.2629    0.0000 O         1 <0>        0.00000
      8 N3         -0.8026    0.8340    0.0000 N         1 <0>        0.00000
      9 C5         -1.6276    0.8340    0.0000 CT        1 <0>        0.00000
     10 C6         -2.0401    0.1195    0.0000 C         1 <0>        0.00000
     11 O2         -2.8651    0.1195    0.0000 OH        1 <0>        0.00000
     12 O3         -1.6276   -0.5950    0.0000 O         1 <0>        0.00000
     13 C7         -0.3901    0.1195    0.0000 CA        1 <0>        0.00000
     14 C8          0.4349    0.1195    0.0000 CA        1 <0>        0.00000
     15 C9          0.8474    0.8340    0.0000 C         1 <0>        0.00000
     16 O4          1.6724    0.8340    0.0000 O         1 <0>        0.00000
     17 S1          2.1573    1.5955    0.0000 S         1 <0>        0.00000
     18 C10         2.9420    1.8504    0.0000 CB        1 <0>        0.00000
     19 C11         3.6564    1.4379    0.0000 CA        1 <0>        0.00000
     20 C12         4.3709    1.8504    0.0000 CA        1 <0>        0.00000
     21 C13         4.3709    2.6754    0.0000 CA        1 <0>        0.00000
     22 Cl1         5.0854    3.0879    0.0000 CL        1 <0>        0.00000
     23 C14         3.6564    3.0879    0.0000 CA        1 <0>        0.00000
     24 H1          0.8474    2.2629    0.0000 H1        1 <0>        0.00000
     25 H2          0.8474    2.2629    0.0000 H1        1 <0>        0.00000
     26 H3         -1.6276    0.8340    0.0000 H1        1 <0>        0.00000
     27 H4         -1.6276    0.8340    0.0000 H1        1 <0>        0.00000
     28 H5         -2.8651    0.1195    0.0000 HO        1 <0>        0.00000
     29 H6         -0.3901    0.1195    0.0000 H4        1 <0>        0.00000
     30 H7          0.4349    0.1195    0.0000 HA        1 <0>        0.00000
     31 H8          3.6564    1.4379    0.0000 HA        1 <0>        0.00000
     32 H9          4.3709    1.8504    0.0000 HA        1 <0>        0.00000
     33 H10         3.6564    3.0879    0.0000 HA        1 <0>        0.00000
@<TRIPOS>BOND
     1    1   23 ar
     2    1   18 ar
     3    1    2 1
     4    2    3 2
     5    3   17 1
     6    3    4 1
     7    4    5 1
     8    5   15 am
     9    5    6 am
    10    6    7 2
    11    6    8 am
    12    8   13 1
    13    8    9 1
    14    9   10 1
    15   10   12 2
    16   10   11 1
    17   13   14 2
    18   14   15 1
    19   15   16 2
    20   17   18 1
    21   18   19 ar
    22   19   20 ar
    23   20   21 ar
    24   21   22 1
    25   21   23 ar
    26    4   24 1
    27    4   25 1
    28    9   26 1
    29    9   27 1
    30   11   28 1
    31   13   29 1
    32   14   30 1
    33   19   31 1
    34   20   32 1
    35   23   33 1
@<TRIPOS>SUBSTRUCTURE
     1 <0>         1 GROUP 0 A     ****
@<TRIPOS>MOLECULE
D92
   58    62     1     0     0
SMALL
NO_CHARGES

@<TRIPOS>ATOM
      1 Cl1         0.0548   -4.8527    0.0000 CL        1 <0>        0.00000
      2 C1          0.0548   -4.0277    0.0000 CA        1 <0>        0.00000
      3 C2          0.7692   -3.6152    0.0000 CA        1 <0>        0.00000
      4 C3          0.7692   -2.7902    0.0000 CA        1 <0>        0.00000
      5 C4          0.0548   -2.3777    0.0000 CB        1 <0>        0.00000
      6 N1         -0.1168   -1.5707    0.0000 NA        1 <0>        0.00000
      7 C5         -0.6597   -3.6152    0.0000 CA        1 <0>        0.00000
      8 C6         -0.6597   -2.7902    0.0000 CB        1 <0>        0.00000
      9 C7         -1.2728   -2.2382    0.0000 CC        1 <0>        0.00000
     10 C8         -0.9372   -1.4845    0.0000 CW        1 <0>        0.00000
     11 C9         -1.3497   -0.7700    0.0000 C         1 <0>        0.00000
     12 O1         -2.1747   -0.7700    0.0000 O         1 <0>        0.00000
     13 N2         -0.9372   -0.0556    0.0000 N         1 <0>        0.00000
     14 C10        -1.3497    0.6589    0.0000 CT        1 <0>        0.00000
     15 C11        -2.1747    0.6589    0.0000 CT        1 <0>        0.00000
     16 C12        -2.5872    1.3734    0.0000 CT        1 <0>        0.00000
     17 C13        -2.1747    2.0879    0.0000 CT        1 <0>        0.00000
     18 C14        -1.3497    2.0879    0.0000 CT        1 <0>        0.00000
     19 C15        -0.9372    1.3734    0.0000 CT        1 <0>        0.00000
     20 N3         -0.1122    1.3734    0.0000 N         1 <0>        0.00000
     21 C16         0.3003    2.0879    0.0000 C         1 <0>        0.00000
     22 O2         -0.1122    2.8023    0.0000 O         1 <0>        0.00000
     23 C17         1.1253    2.0879    0.0000 CR        1 <0>        0.00000
     24 S1          1.6102    2.7553    0.0000 S         1 <0>        0.00000
     25 C18         2.3948    2.5004    0.0000 CW        1 <0>        0.00000
     26 C19         3.1093    2.9129    0.0000 CT        1 <0>        0.00000
     27 N4          3.8237    2.5004    0.0000 N3        1 <0>        0.00000
     28 C20         4.5382    2.9129    0.0000 CT        1 <0>        0.00000
     29 C21         3.8237    1.6754    0.0000 CT        1 <0>        0.00000
     30 C22         3.1093    1.2629    0.0000 CT        1 <0>        0.00000
     31 C23         2.3948    1.6754    0.0000 CC        1 <0>        0.00000
     32 N5          1.6102    1.4204    0.0000 NB        1 <0>        0.00000
     33 H1         -1.6417    0.1532    0.0000 H1        1 <0>        0.00000
     34 H2         -0.6453    0.8677    0.0000 H1        1 <0>        0.00000
     35 H3          0.7692   -3.6152    0.0000 HA        1 <0>        0.00000
     36 H4          0.7692   -2.7902    0.0000 HA        1 <0>        0.00000
     37 H5         -0.1168   -1.5707    0.0000 H         1 <0>        0.00000
     38 H6         -0.6597   -3.6152    0.0000 HA        1 <0>        0.00000
     39 H7         -1.2728   -2.2382    0.0000 HA        1 <0>        0.00000
     40 H8         -0.9372   -0.0556    0.0000 H         1 <0>        0.00000
     41 H9         -2.1747    0.6589    0.0000 HC        1 <0>        0.00000
     42 H10        -2.1747    0.6589    0.0000 HC        1 <0>        0.00000
     43 H11        -2.5872    1.3734    0.0000 HC        1 <0>        0.00000
     44 H12        -2.5872    1.3734    0.0000 HC        1 <0>        0.00000
     45 H13        -2.1747    2.0879    0.0000 HC        1 <0>        0.00000
     46 H14        -2.1747    2.0879    0.0000 HC        1 <0>        0.00000
     47 H15        -1.3497    2.0879    0.0000 HC        1 <0>        0.00000
     48 H16        -1.3497    2.0879    0.0000 HC        1 <0>        0.00000
     49 H17        -0.1122    1.3734    0.0000 H         1 <0>        0.00000
     50 H18         3.1093    2.9129    0.0000 H1        1 <0>        0.00000
     51 H19         3.1093    2.9129    0.0000 H1        1 <0>        0.00000
     52 H20         4.5382    2.9129    0.0000 H1        1 <0>        0.00000
     53 H21         4.5382    2.9129    0.0000 H1        1 <0>        0.00000
     54 H22         4.5382    2.9129    0.0000 H1        1 <0>        0.00000
     55 H23         3.8237    1.6754    0.0000 H1        1 <0>        0.00000
     56 H24         3.8237    1.6754    0.0000 H1        1 <0>        0.00000
     57 H25         3.1093    1.2629    0.0000 HC        1 <0>        0.00000
     58 H26         3.1093    1.2629    0.0000 HC        1 <0>        0.00000
@<TRIPOS>BOND
     1    1    2 1
     2    2    7 ar
     3    2    3 ar
     4    3    4 ar
     5    4    5 ar
     6    5    8 ar
     7    5    6 1
     8    6   10 1
     9    7    8 ar
    10    8    9 1
    11    9   10 2
    12   10   11 1
    13   11   13 am
    14   11   12 2
    15   13   14 1
    16   14   15 1
    17   14   19 1
    18   14   33 1
    19   15   16 1
    20   16   17 1
    21   17   18 1
    22   18   19 1
    23   19   20 1
    24   19   34 1
    25   20   21 am
    26   21   23 1
    27   21   22 2
    28   23   32 2
    29   23   24 1
    30   24   25 1
    31   25   26 1
    32   25   31 2
    33   26   27 1
    34   27   28 1
    35   27   29 1
    36   29   30 1
    37   30   31 1
    38   31   32 1
    39    3   35 1
    40    4   36 1
    41    6   37 1
    42    7   38 1
    43    9   39 1
    44   13   40 1
    45   15   41 1
    46   15   42 1
    47   16   43 1
    48   16   44 1
    49   17   45 1
    50   17   46 1
    51   18   47 1
    52   18   48 1
    53   20   49 1
    54   26   50 1
    55   26   51 1
    56   28   52 1
    57   28   53 1
    58   28   54 1
    59   29   55 1
    60   29   56 1
    61   30   57 1
    62   30   58 1
@<TRIPOS>SUBSTRUCTURE
     1 <0>         1 GROUP 0 A     ****
@<TRIPOS>MOLECULE
MiniDrugBank_92
   39    38     1     0     0
SMALL
NO_CHARGES

@<TRIPOS>ATOM
      1 O1          4.7586    3.5724    0.0000 OH        1 <0>        0.00000
      2 C1          5.4730    3.9849    0.0000 CT        1 <0>        0.00000
      3 C2          6.1875    3.5724    0.0000 CT        1 <0>        0.00000
      4 C3          6.9020    3.9849    0.0000 CT        1 <0>        0.00000
      5 C4          7.6164    3.5724    0.0000 CT        1 <0>        0.00000
      6 C5          8.3309    3.9849    0.0000 CT        1 <0>        0.00000
      7 C6          9.0454    3.5724    0.0000 CT        1 <0>        0.00000
      8 C7          9.7599    3.9849    0.0000 CT        1 <0>        0.00000
      9 C8         10.4743    3.5724    0.0000 CT        1 <0>        0.00000
     10 C9         11.1888    3.9849    0.0000 CT        1 <0>        0.00000
     11 C10        11.9033    3.5724    0.0000 CT        1 <0>        0.00000
     12 C11        12.6177    3.9849    0.0000 CT        1 <0>        0.00000
     13 C12        13.3322    3.5724    0.0000 CT        1 <0>        0.00000
     14 Br1        14.0467    3.9849    0.0000 BR        1 <0>        0.00000
     15 H1          4.7586    3.5724    0.0000 HO        1 <0>        0.00000
     16 H2          5.4730    3.9849    0.0000 H1        1 <0>        0.00000
     17 H3          5.4730    3.9849    0.0000 H1        1 <0>        0.00000
     18 H4          6.1875    3.5724    0.0000 HC        1 <0>        0.00000
     19 H5          6.1875    3.5724    0.0000 HC        1 <0>        0.00000
     20 H6          6.9020    3.9849    0.0000 HC        1 <0>        0.00000
     21 H7          6.9020    3.9849    0.0000 HC        1 <0>        0.00000
     22 H8          7.6164    3.5724    0.0000 HC        1 <0>        0.00000
     23 H9          7.6164    3.5724    0.0000 HC        1 <0>        0.00000
     24 H10         8.3309    3.9849    0.0000 HC        1 <0>        0.00000
     25 H11         8.3309    3.9849    0.0000 HC        1 <0>        0.00000
     26 H12         9.0454    3.5724    0.0000 HC        1 <0>        0.00000
     27 H13         9.0454    3.5724    0.0000 HC        1 <0>        0.00000
     28 H14         9.7599    3.9849    0.0000 HC        1 <0>        0.00000
     29 H15         9.7599    3.9849    0.0000 HC        1 <0>        0.00000
     30 H16        10.4743    3.5724    0.0000 HC        1 <0>        0.00000
     31 H17        10.4743    3.5724    0.0000 HC        1 <0>        0.00000
     32 H18        11.1888    3.9849    0.0000 HC        1 <0>        0.00000
     33 H19        11.1888    3.9849    0.0000 HC        1 <0>        0.00000
     34 H20        11.9033    3.5724    0.0000 HC        1 <0>        0.00000
     35 H21        11.9033    3.5724    0.0000 HC        1 <0>        0.00000
     36 H22        12.6177    3.9849    0.0000 HC        1 <0>        0.00000
     37 H23        12.6177    3.9849    0.0000 HC        1 <0>        0.00000
     38 H24        13.3322    3.5724    0.0000 H1        1 <0>        0.00000
     39 H25        13.3322    3.5724    0.0000 H1        1 <0>        0.00000
@<TRIPOS>BOND
     1    1    2 1
     2    2    3 1
     3    3    4 1
     4    4    5 1
     5    5    6 1
     6    6    7 1
     7    7    8 1
     8    8    9 1
     9    9   10 1
    10   10   11 1
    11   11   12 1
    12   12   13 1
    13   13   14 1
    14    1   15 1
    15    2   16 1
    16    2   17 1
    17    3   18 1
    18    3   19 1
    19    4   20 1
    20    4   21 1
    21    5   22 1
    22    5   23 1
    23    6   24 1
    24    6   25 1
    25    7   26 1
    26    7   27 1
    27    8   28 1
    28    8   29 1
    29    9   30 1
    30    9   31 1
    31   10   32 1
    32   10   33 1
    33   11   34 1
    34   11   35 1
    35   12   36 1
    36   12   37 1
    37   13   38 1
    38   13   39 1
@<TRIPOS>SUBSTRUCTURE
     1 <0>         1 GROUP 0 A     ****
@<TRIPOS>MOLECULE
MiniDrugBank_93
   38    39     1     0     0
SMALL
NO_CHARGES

@<TRIPOS>ATOM
      1 C1          1.3222    7.2402    0.0000 CT        1 <0>        0.00000
      2 C2          2.0367    6.8277    0.0000 CA        1 <0>        0.00000
      3 N1          2.7512    7.2402    0.0000 NC        1 <0>        0.00000
      4 C3          3.4656    6.8277    0.0000 CA        1 <0>        0.00000
      5 C4          3.4656    6.0027    0.0000 CA        1 <0>        0.00000
      6 C5          4.1801    5.5902    0.0000 CT        1 <0>        0.00000
      7 O1          4.8946    6.0027    0.0000 OS        1 <0>        0.00000
      8 P1          5.6091    5.5902    0.0000 P         1 <0>        0.00000
      9 O2          6.3235    5.1777    0.0000 OH        1 <0>        0.00000
     10 O3          6.0216    6.3047    0.0000 OH        1 <0>        0.00000
     11 O4          5.1966    4.8757    0.0000 O         1 <0>        0.00000
     12 C6          2.7512    5.5902    0.0000 CA        1 <0>        0.00000
     13 C7          2.7512    4.7652    0.0000 CT        1 <0>        0.00000
     14 N2          3.4656    4.3527    0.0000 N3        1 <0>        0.00000
     15 C8          3.4656    3.5277    0.0000 CT        1 <0>        0.00000
     16 C9          4.1331    3.0428    0.0000 CT        1 <0>        0.00000
     17 O5          3.8781    2.2581    0.0000 OS        1 <0>        0.00000
     18 N3          3.0531    2.2581    0.0000 N         1 <0>        0.00000
     19 C10         2.7982    3.0428    0.0000 C         1 <0>        0.00000
     20 O6          2.0136    3.2977    0.0000 O         1 <0>        0.00000
     21 C11         2.0367    6.0027    0.0000 CA        1 <0>        0.00000
     22 O7          1.3222    5.5902    0.0000 OH        1 <0>        0.00000
     23 H1          1.3222    7.2402    0.0000 HC        1 <0>        0.00000
     24 H2          1.3222    7.2402    0.0000 HC        1 <0>        0.00000
     25 H3          1.3222    7.2402    0.0000 HC        1 <0>        0.00000
     26 H4          3.4656    6.8277    0.0000 H4        1 <0>        0.00000
     27 H5          4.1801    5.5902    0.0000 H1        1 <0>        0.00000
     28 H6          4.1801    5.5902    0.0000 H1        1 <0>        0.00000
     29 H7          6.3235    5.1777    0.0000 HO        1 <0>        0.00000
     30 H8          6.0216    6.3047    0.0000 HO        1 <0>        0.00000
     31 H9          2.7512    4.7652    0.0000 H1        1 <0>        0.00000
     32 H10         2.7512    4.7652    0.0000 H1        1 <0>        0.00000
     33 H11         3.4656    4.3527    0.0000 H         1 <0>        0.00000
     34 H12         3.4656    3.5277    0.0000 H1        1 <0>        0.00000
     35 H13         4.1331    3.0428    0.0000 H1        1 <0>        0.00000
     36 H14         4.1331    3.0428    0.0000 H1        1 <0>        0.00000
     37 H15         3.0531    2.2581    0.0000 H         1 <0>        0.00000
     38 H16         1.3222    5.5902    0.0000 HO        1 <0>        0.00000
@<TRIPOS>BOND
     1    1    2 1
     2    2    3 ar
     3    3    4 ar
     4    4    5 ar
     5    5    6 1
     6    6    7 1
     7    7    8 1
     8    8    9 1
     9    8   10 1
    10    8   11 2
    11    5   12 ar
    12   12   13 1
    13   13   14 1
    14   14   15 1
    15   15   16 1
    16   16   17 1
    17   17   18 1
    18   18   19 am
    19   15   19 1
    20   19   20 2
    21   12   21 ar
    22    2   21 ar
    23   21   22 1
    24    1   23 1
    25    1   24 1
    26    1   25 1
    27    4   26 1
    28    6   27 1
    29    6   28 1
    30    9   29 1
    31   10   30 1
    32   13   31 1
    33   13   32 1
    34   14   33 1
    35   15   34 1
    36   16   35 1
    37   16   36 1
    38   18   37 1
    39   22   38 1
@<TRIPOS>SUBSTRUCTURE
     1 <0>         1 GROUP 0 A     ****
@<TRIPOS>MOLECULE
VZZ
   39    38     1     0     0
SMALL
NO_CHARGES

@<TRIPOS>ATOM
      1 O1         -4.3064    0.3438    0.0000 O         1 <0>        0.00000
      2 C1         -3.5919   -0.0687    0.0000 C         1 <0>        0.00000
      3 O2         -3.5919   -0.8938    0.0000 OH        1 <0>        0.00000
      4 C2         -2.8773    0.3438    0.0000 CT        1 <0>        0.00000
      5 C3         -2.1628   -0.0687    0.0000 CT        1 <0>        0.00000
      6 C4         -1.4483    0.3438    0.0000 CT        1 <0>        0.00000
      7 C5         -0.7338   -0.0687    0.0000 CT        1 <0>        0.00000
      8 C6         -0.0192    0.3438    0.0000 CT        1 <0>        0.00000
      9 C7          0.6953   -0.0687    0.0000 CT        1 <0>        0.00000
     10 C8          1.4098    0.3438    0.0000 CT        1 <0>        0.00000
     11 C9          2.1244   -0.0687    0.0000 CT        1 <0>        0.00000
     12 C10         2.8389    0.3438    0.0000 CT        1 <0>        0.00000
     13 C11         3.5534   -0.0687    0.0000 CT        1 <0>        0.00000
     14 O3          4.2679    0.3438    0.0000 OS        1 <0>        0.00000
     15 C12         4.9825   -0.0687    0.0000 C         1 <0>        0.00000
     16 O4          5.6969    0.3438    0.0000 O         1 <0>        0.00000
     17 S1          4.9825   -0.8938    0.0000 SH        1 <0>        0.00000
     18 H1         -3.5919   -0.8938    0.0000 HO        1 <0>        0.00000
     19 H2         -2.8773    0.3438    0.0000 HC        1 <0>        0.00000
     20 H3         -2.8773    0.3438    0.0000 HC        1 <0>        0.00000
     21 H4         -2.1628   -0.0687    0.0000 HC        1 <0>        0.00000
     22 H5         -2.1628   -0.0687    0.0000 HC        1 <0>        0.00000
     23 H6         -1.4483    0.3438    0.0000 HC        1 <0>        0.00000
     24 H7         -1.4483    0.3438    0.0000 HC        1 <0>        0.00000
     25 H8         -0.7338   -0.0687    0.0000 HC        1 <0>        0.00000
     26 H9         -0.7338   -0.0687    0.0000 HC        1 <0>        0.00000
     27 H10        -0.0192    0.3438    0.0000 HC        1 <0>        0.00000
     28 H11        -0.0192    0.3438    0.0000 HC        1 <0>        0.00000
     29 H12         0.6953   -0.0687    0.0000 HC        1 <0>        0.00000
     30 H13         0.6953   -0.0687    0.0000 HC        1 <0>        0.00000
     31 H14         1.4098    0.3438    0.0000 HC        1 <0>        0.00000
     32 H15         1.4098    0.3438    0.0000 HC        1 <0>        0.00000
     33 H16         2.1244   -0.0687    0.0000 HC        1 <0>        0.00000
     34 H17         2.1244   -0.0687    0.0000 HC        1 <0>        0.00000
     35 H18         2.8389    0.3438    0.0000 HC        1 <0>        0.00000
     36 H19         2.8389    0.3438    0.0000 HC        1 <0>        0.00000
     37 H20         3.5534   -0.0687    0.0000 H1        1 <0>        0.00000
     38 H21         3.5534   -0.0687    0.0000 H1        1 <0>        0.00000
     39 H22         4.9825   -0.8938    0.0000 HS        1 <0>        0.00000
@<TRIPOS>BOND
     1    1    2 2
     2    2    3 1
     3    2    4 1
     4    4    5 1
     5    5    6 1
     6    6    7 1
     7    7    8 1
     8    8    9 1
     9    9   10 1
    10   10   11 1
    11   11   12 1
    12   12   13 1
    13   13   14 1
    14   14   15 1
    15   15   16 2
    16   15   17 1
    17    3   18 1
    18    4   19 1
    19    4   20 1
    20    5   21 1
    21    5   22 1
    22    6   23 1
    23    6   24 1
    24    7   25 1
    25    7   26 1
    26    8   27 1
    27    8   28 1
    28    9   29 1
    29    9   30 1
    30   10   31 1
    31   10   32 1
    32   11   33 1
    33   11   34 1
    34   12   35 1
    35   12   36 1
    36   13   37 1
    37   13   38 1
    38   17   39 1
@<TRIPOS>SUBSTRUCTURE
     1 <0>         1 GROUP 0 A     ****
@<TRIPOS>MOLECULE
MiniDrugBank_95
   51    54     1     0     0
SMALL
NO_CHARGES

@<TRIPOS>ATOM
      1 Br1         8.6275    0.3477    0.0000 BR        1 <0>        0.00000
      2 O1          2.0917   -1.7578    0.0000 OH        1 <0>        0.00000
      3 O2          7.5775    1.7956    0.0000 O         1 <0>        0.00000
      4 C1          5.1119   -0.0648    0.0000 CT        1 <0>        0.00000
      5 C2          4.3612   -0.4829    0.0000 CT        1 <0>        0.00000
      6 C3          5.8262   -0.4772    0.0000 CT        1 <0>        0.00000
      7 C4          6.5406   -0.0648    0.0000 CT        1 <0>        0.00000
      8 C5          4.3545   -1.3421    0.0000 CT        1 <0>        0.00000
      9 C6          6.5406    0.7602    0.0000 CT        1 <0>        0.00000
     10 C7          5.1119    0.7602    0.0000 CT        1 <0>        0.00000
     11 C8          5.8395   -1.3363    0.0000 CT        1 <0>        0.00000
     12 C9          5.8262    1.1727    0.0000 CT        1 <0>        0.00000
     13 C10         5.0987   -1.7718    0.0000 CT        1 <0>        0.00000
     14 C11         3.5966   -0.0176    0.0000 CT        1 <0>        0.00000
     15 C12         7.3211   -0.3162    0.0000 CT        1 <0>        0.00000
     16 C13         3.5829   -1.7956    0.0000 CT        1 <0>        0.00000
     17 C14         4.3676    0.3421    0.0000 CT        1 <0>        0.00000
     18 C15         7.3211    1.0115    0.0000 C         1 <0>        0.00000
     19 C16         7.8026    0.3477    0.0000 CT        1 <0>        0.00000
     20 C17         2.8147   -0.4531    0.0000 CT        1 <0>        0.00000
     21 C18         2.8078   -1.3480    0.0000 CT        1 <0>        0.00000
     22 C19         6.5406    1.5851    0.0000 CT        1 <0>        0.00000
     23 H1          5.6833    0.2652    0.0000 HC        1 <0>        0.00000
     24 H2          6.4003   -0.8028    0.0000 HC        1 <0>        0.00000
     25 H3          6.6105   -0.7210    0.0000 HC        1 <0>        0.00000
     26 H4          4.3571   -2.0021    0.0000 HC        1 <0>        0.00000
     27 H5          2.0917   -1.7578    0.0000 HO        1 <0>        0.00000
     28 H6          5.1119    0.7602    0.0000 HC        1 <0>        0.00000
     29 H7          5.1119    0.7602    0.0000 HC        1 <0>        0.00000
     30 H8          5.8395   -1.3363    0.0000 HC        1 <0>        0.00000
     31 H9          5.8395   -1.3363    0.0000 HC        1 <0>        0.00000
     32 H10         5.8262    1.1727    0.0000 HC        1 <0>        0.00000
     33 H11         5.8262    1.1727    0.0000 HC        1 <0>        0.00000
     34 H12         5.0987   -1.7718    0.0000 HC        1 <0>        0.00000
     35 H13         5.0987   -1.7718    0.0000 HC        1 <0>        0.00000
     36 H14         3.5966   -0.0176    0.0000 HC        1 <0>        0.00000
     37 H15         3.5966   -0.0176    0.0000 HC        1 <0>        0.00000
     38 H16         7.3211   -0.3162    0.0000 HC        1 <0>        0.00000
     39 H17         7.3211   -0.3162    0.0000 HC        1 <0>        0.00000
     40 H18         3.5829   -1.7956    0.0000 HC        1 <0>        0.00000
     41 H19         3.5829   -1.7956    0.0000 HC        1 <0>        0.00000
     42 H20         4.3676    0.3421    0.0000 HC        1 <0>        0.00000
     43 H21         4.3676    0.3421    0.0000 HC        1 <0>        0.00000
     44 H22         4.3676    0.3421    0.0000 HC        1 <0>        0.00000
     45 H23         7.8026    0.3477    0.0000 H1        1 <0>        0.00000
     46 H24         2.8147   -0.4531    0.0000 HC        1 <0>        0.00000
     47 H25         2.8147   -0.4531    0.0000 HC        1 <0>        0.00000
     48 H26         2.8078   -1.3480    0.0000 H1        1 <0>        0.00000
     49 H27         6.5406    1.5851    0.0000 HC        1 <0>        0.00000
     50 H28         6.5406    1.5851    0.0000 HC        1 <0>        0.00000
     51 H29         6.5406    1.5851    0.0000 HC        1 <0>        0.00000
@<TRIPOS>BOND
     1    1   19 1
     2    2   21 1
     3    3   18 2
     4    4    5 1
     5    4    6 1
     6    4   10 1
     7    4   23 1
     8    5    8 1
     9    5   14 1
    10    5   17 1
    11    6    7 1
    12    6   11 1
    13    6   24 1
    14    7    9 1
    15    7   15 1
    16    7   25 1
    17    8   13 1
    18    8   16 1
    19    8   26 1
    20    9   12 1
    21    9   18 1
    22    9   22 1
    23   10   12 1
    24   11   13 1
    25   14   20 1
    26   15   19 1
    27   16   21 1
    28   18   19 1
    29   20   21 1
    30    2   27 1
    31   10   28 1
    32   10   29 1
    33   11   30 1
    34   11   31 1
    35   12   32 1
    36   12   33 1
    37   13   34 1
    38   13   35 1
    39   14   36 1
    40   14   37 1
    41   15   38 1
    42   15   39 1
    43   16   40 1
    44   16   41 1
    45   17   42 1
    46   17   43 1
    47   17   44 1
    48   19   45 1
    49   20   46 1
    50   20   47 1
    51   21   48 1
    52   22   49 1
    53   22   50 1
    54   22   51 1
@<TRIPOS>SUBSTRUCTURE
     1 <0>         1 GROUP 0 A     ****
@<TRIPOS>MOLECULE
304
   53    56     1     0     0
SMALL
NO_CHARGES

@<TRIPOS>ATOM
      1 O1          5.9104    1.5551    0.0000 OH        1 <0>        0.00000
      2 C1          5.3833    0.5186    0.0000 CT        1 <0>        0.00000
      3 C2          5.3833   -0.3064    0.0000 CT        1 <0>        0.00000
      4 C3          4.6689   -0.7189    0.0000 CT        1 <0>        0.00000
      5 C4          3.9544   -0.3064    0.0000 CT        1 <0>        0.00000
      6 C5          6.1640    0.7700    0.0000 CT        1 <0>        0.00000
      7 C6          6.1640   -0.5579    0.0000 CT        1 <0>        0.00000
      8 C7          4.6689    0.9311    0.0000 CT        1 <0>        0.00000
      9 C8          6.6455    0.1061    0.0000 CT        1 <0>        0.00000
     10 C9          3.2036   -0.7246    0.0000 CT        1 <0>        0.00000
     11 C10         4.6821   -1.5783    0.0000 CT        1 <0>        0.00000
     12 C11         3.9544    0.5186    0.0000 CM        1 <0>        0.00000
     13 C12         5.3833    1.3436    0.0000 CT        1 <0>        0.00000
     14 C13         3.9412   -2.0136    0.0000 CT        1 <0>        0.00000
     15 C14         3.1970   -1.5840    0.0000 CM        1 <0>        0.00000
     16 C15         2.4389   -0.2592    0.0000 CT        1 <0>        0.00000
     17 C16         4.6689    1.7561    0.0000 CT        1 <0>        0.00000
     18 C17         6.8323    1.2538    0.0000 C2        1 <0>        0.00000
     19 C18         1.6570   -0.6948    0.0000 CT        1 <0>        0.00000
     20 C19         2.4252   -2.0375    0.0000 CM        1 <0>        0.00000
     21 C20         3.2399    0.9311    0.0000 CM        1 <0>        0.00000
     22 C21         1.6500   -1.5899    0.0000 CT        1 <0>        0.00000
     23 C22         7.5006    1.7376    0.0000 C2        1 <0>        0.00000
     24 H1          5.4532   -0.9628    0.0000 HC        1 <0>        0.00000
     25 H2          5.2430   -1.0446    0.0000 HC        1 <0>        0.00000
     26 H3          4.5260    0.0236    0.0000 HC        1 <0>        0.00000
     27 H4          3.2163   -0.0647    0.0000 HC        1 <0>        0.00000
     28 H5          5.9104    1.5551    0.0000 HO        1 <0>        0.00000
     29 H6          6.1640   -0.5579    0.0000 HC        1 <0>        0.00000
     30 H7          6.1640   -0.5579    0.0000 HC        1 <0>        0.00000
     31 H8          4.6689    0.9311    0.0000 HC        1 <0>        0.00000
     32 H9          4.6689    0.9311    0.0000 HC        1 <0>        0.00000
     33 H10         6.6455    0.1061    0.0000 HC        1 <0>        0.00000
     34 H11         6.6455    0.1061    0.0000 HC        1 <0>        0.00000
     35 H12         4.6821   -1.5783    0.0000 HC        1 <0>        0.00000
     36 H13         4.6821   -1.5783    0.0000 HC        1 <0>        0.00000
     37 H14         5.3833    1.3436    0.0000 HC        1 <0>        0.00000
     38 H15         5.3833    1.3436    0.0000 HC        1 <0>        0.00000
     39 H16         3.9412   -2.0136    0.0000 HC        1 <0>        0.00000
     40 H17         3.9412   -2.0136    0.0000 HC        1 <0>        0.00000
     41 H18         2.4389   -0.2592    0.0000 HC        1 <0>        0.00000
     42 H19         2.4389   -0.2592    0.0000 HC        1 <0>        0.00000
     43 H20         4.6689    1.7561    0.0000 HC        1 <0>        0.00000
     44 H21         4.6689    1.7561    0.0000 HC        1 <0>        0.00000
     45 H22         4.6689    1.7561    0.0000 HC        1 <0>        0.00000
     46 H23         1.6570   -0.6948    0.0000 HC        1 <0>        0.00000
     47 H24         1.6570   -0.6948    0.0000 HC        1 <0>        0.00000
     48 H25         2.4252   -2.0375    0.0000 HA        1 <0>        0.00000
     49 H26         3.2399    0.9311    0.0000 HA        1 <0>        0.00000
     50 H27         3.2399    0.9311    0.0000 HA        1 <0>        0.00000
     51 H28         1.6500   -1.5899    0.0000 HC        1 <0>        0.00000
     52 H29         1.6500   -1.5899    0.0000 HC        1 <0>        0.00000
     53 H30         7.5006    1.7376    0.0000 HC        1 <0>        0.00000
@<TRIPOS>BOND
     1    1    6 1
     2    2    3 1
     3    2    6 1
     4    2    8 1
     5    2   13 1
     6    3    4 1
     7    3    7 1
     8    3   24 1
     9    4    5 1
    10    4   11 1
    11    4   25 1
    12    5   10 1
    13    5   12 1
    14    5   26 1
    15    6    9 1
    16    6   18 1
    17    7    9 1
    18    8   12 1
    19   10   15 1
    20   10   16 1
    21   10   27 1
    22   11   14 1
    23   12   21 2
    24   13   17 1
    25   14   15 1
    26   15   20 2
    27   16   19 1
    28   18   23 3
    29   19   22 1
    30   20   22 1
    31    1   28 1
    32    7   29 1
    33    7   30 1
    34    8   31 1
    35    8   32 1
    36    9   33 1
    37    9   34 1
    38   11   35 1
    39   11   36 1
    40   13   37 1
    41   13   38 1
    42   14   39 1
    43   14   40 1
    44   16   41 1
    45   16   42 1
    46   17   43 1
    47   17   44 1
    48   17   45 1
    49   19   46 1
    50   19   47 1
    51   20   48 1
    52   21   49 1
    53   21   50 1
    54   22   51 1
    55   22   52 1
    56   23   53 1
@<TRIPOS>SUBSTRUCTURE
     1 <0>         1 GROUP 0 A     ****
@<TRIPOS>MOLECULE
4826
   42    44     1     0     0
SMALL
NO_CHARGES

@<TRIPOS>ATOM
      1 S1          2.9849    2.1190    0.0000 S         1 <0>        0.00000
      2 N1          3.0319   -2.0786    0.0000 N3        1 <0>        0.00000
      3 N2          3.0319    0.3965    0.0000 N3        1 <0>        0.00000
      4 C1          3.0319   -0.4285    0.0000 CT        1 <0>        0.00000
      5 C2          2.3175   -0.8410    0.0000 CT        1 <0>        0.00000
      6 C3          3.7465   -0.8410    0.0000 CT        1 <0>        0.00000
      7 C4          2.3175   -1.6660    0.0000 CT        1 <0>        0.00000
      8 C5          3.7465   -1.6660    0.0000 CT        1 <0>        0.00000
      9 C6          2.3175    0.8090    0.0000 CT        1 <0>        0.00000
     10 C7          3.7465    0.8090    0.0000 CA        1 <0>        0.00000
     11 C8          3.0319   -2.9036    0.0000 CT        1 <0>        0.00000
     12 C9          2.3175    1.6340    0.0000 CW        1 <0>        0.00000
     13 C10         4.4610    0.3965    0.0000 CA        1 <0>        0.00000
     14 C11         3.7465    1.6340    0.0000 CA        1 <0>        0.00000
     15 C12         1.6500    2.1190    0.0000 CC        1 <0>        0.00000
     16 C13         5.1754    0.8090    0.0000 CA        1 <0>        0.00000
     17 C14         4.4610    2.0465    0.0000 CA        1 <0>        0.00000
     18 C15         5.1754    1.6340    0.0000 CA        1 <0>        0.00000
     19 C16         1.9050    2.9036    0.0000 CC        1 <0>        0.00000
     20 C17         2.7300    2.9036    0.0000 CW        1 <0>        0.00000
     21 H1          3.0319   -0.4285    0.0000 H1        1 <0>        0.00000
     22 H2          2.3175   -0.8410    0.0000 HC        1 <0>        0.00000
     23 H3          2.3175   -0.8410    0.0000 HC        1 <0>        0.00000
     24 H4          3.7465   -0.8410    0.0000 HC        1 <0>        0.00000
     25 H5          3.7465   -0.8410    0.0000 HC        1 <0>        0.00000
     26 H6          2.3175   -1.6660    0.0000 H1        1 <0>        0.00000
     27 H7          2.3175   -1.6660    0.0000 H1        1 <0>        0.00000
     28 H8          3.7465   -1.6660    0.0000 H1        1 <0>        0.00000
     29 H9          3.7465   -1.6660    0.0000 H1        1 <0>        0.00000
     30 H10         2.3175    0.8090    0.0000 H1        1 <0>        0.00000
     31 H11         2.3175    0.8090    0.0000 H1        1 <0>        0.00000
     32 H12         3.0319   -2.9036    0.0000 H1        1 <0>        0.00000
     33 H13         3.0319   -2.9036    0.0000 H1        1 <0>        0.00000
     34 H14         3.0319   -2.9036    0.0000 H1        1 <0>        0.00000
     35 H15         4.4610    0.3965    0.0000 HA        1 <0>        0.00000
     36 H16         3.7465    1.6340    0.0000 HA        1 <0>        0.00000
     37 H17         1.6500    2.1190    0.0000 HA        1 <0>        0.00000
     38 H18         5.1754    0.8090    0.0000 HA        1 <0>        0.00000
     39 H19         4.4610    2.0465    0.0000 HA        1 <0>        0.00000
     40 H20         5.1754    1.6340    0.0000 HA        1 <0>        0.00000
     41 H21         1.9050    2.9036    0.0000 HA        1 <0>        0.00000
     42 H22         2.7300    2.9036    0.0000 H4        1 <0>        0.00000
@<TRIPOS>BOND
     1    1   12 1
     2    1   20 1
     3    2    7 1
     4    2    8 1
     5    2   11 1
     6    3    4 1
     7    3    9 1
     8    3   10 1
     9    4    5 1
    10    4    6 1
    11    5    7 1
    12    6    8 1
    13    9   12 1
    14   10   13 ar
    15   10   14 ar
    16   12   15 2
    17   13   16 ar
    18   14   17 ar
    19   15   19 1
    20   16   18 ar
    21   17   18 ar
    22   19   20 2
    23    4   21 1
    24    5   22 1
    25    5   23 1
    26    6   24 1
    27    6   25 1
    28    7   26 1
    29    7   27 1
    30    8   28 1
    31    8   29 1
    32    9   30 1
    33    9   31 1
    34   11   32 1
    35   11   33 1
    36   11   34 1
    37   13   35 1
    38   14   36 1
    39   15   37 1
    40   16   38 1
    41   17   39 1
    42   18   40 1
    43   19   41 1
    44   20   42 1
@<TRIPOS>SUBSTRUCTURE
     1 <0>         1 GROUP 0 A     ****
@<TRIPOS>MOLECULE
P2C
   30    31     1     0     0
SMALL
NO_CHARGES

@<TRIPOS>ATOM
      1 Cl1         0.1779    2.5801    0.0000 CL        1 <0>        0.00000
      2 C1          0.1779    1.7551    0.0000 CA        1 <0>        0.00000
      3 C2          0.8924    1.3426    0.0000 CA        1 <0>        0.00000
      4 O1          1.6069    1.7551    0.0000 OS        1 <0>        0.00000
      5 O2          1.6069    2.5801    0.0000 OS        1 <0>        0.00000
      6 O3          2.3213    2.9926    0.0000 OH        1 <0>        0.00000
      7 C3          0.8924    0.5176    0.0000 CA        1 <0>        0.00000
      8 Cl2         1.6069    0.1051    0.0000 CL        1 <0>        0.00000
      9 C4          0.1779    0.1051    0.0000 CA        1 <0>        0.00000
     10 C5         -0.5365    1.3426    0.0000 CA        1 <0>        0.00000
     11 C6         -0.5365    0.5176    0.0000 CA        1 <0>        0.00000
     12 N1         -1.2510    0.1051    0.0000 N2        1 <0>        0.00000
     13 C7         -1.2510   -0.7199    0.0000 CA        1 <0>        0.00000
     14 C8         -0.5365   -1.1324    0.0000 CA        1 <0>        0.00000
     15 C9         -0.5365   -1.9574    0.0000 CA        1 <0>        0.00000
     16 C10        -1.2510   -2.3699    0.0000 CA        1 <0>        0.00000
     17 C11        -1.9655   -1.9574    0.0000 CA        1 <0>        0.00000
     18 C12        -1.9655   -1.1324    0.0000 CA        1 <0>        0.00000
     19 C13        -2.6800   -0.7199    0.0000 C         1 <0>        0.00000
     20 O4         -3.3944   -1.1324    0.0000 O         1 <0>        0.00000
     21 O5         -2.6800    0.1051    0.0000 OH        1 <0>        0.00000
     22 H1          2.3213    2.9926    0.0000 HO        1 <0>        0.00000
     23 H2          0.1779    0.1051    0.0000 HA        1 <0>        0.00000
     24 H3         -0.5365    1.3426    0.0000 HA        1 <0>        0.00000
     25 H4         -1.2510    0.1051    0.0000 H         1 <0>        0.00000
     26 H5         -0.5365   -1.1324    0.0000 HA        1 <0>        0.00000
     27 H6         -0.5365   -1.9574    0.0000 HA        1 <0>        0.00000
     28 H7         -1.2510   -2.3699    0.0000 HA        1 <0>        0.00000
     29 H8         -1.9655   -1.9574    0.0000 HA        1 <0>        0.00000
     30 H9         -2.6800    0.1051    0.0000 HO        1 <0>        0.00000
@<TRIPOS>BOND
     1    1    2 1
     2    2    3 ar
     3    2   10 ar
     4    3    4 1
     5    3    7 ar
     6    4    5 1
     7    5    6 1
     8    7    8 1
     9    7    9 ar
    10    9   11 ar
    11   10   11 ar
    12   11   12 1
    13   12   13 1
    14   13   14 ar
    15   13   18 ar
    16   14   15 ar
    17   15   16 ar
    18   16   17 ar
    19   17   18 ar
    20   18   19 1
    21   19   20 2
    22   19   21 1
    23    6   22 1
    24    9   23 1
    25   10   24 1
    26   12   25 1
    27   14   26 1
    28   15   27 1
    29   16   28 1
    30   17   29 1
    31   21   30 1
@<TRIPOS>SUBSTRUCTURE
     1 <0>         1 GROUP 0 A     ****
@<TRIPOS>MOLECULE
292
   39    42     1     0     0
SMALL
NO_CHARGES

@<TRIPOS>ATOM
      1 C1         -3.7546    1.5699    0.0000 CJ        1 <0>        0.00000
      2 C2         -3.0009    1.9055    0.0000 CJ        1 <0>        0.00000
      3 C3         -3.0871    1.0850    0.0000 CJ        1 <0>        0.00000
      4 C4         -2.7516    0.3313    0.0000 CR        1 <0>        0.00000
      5 C5         -1.9446    0.1598    0.0000 CC        1 <0>        0.00000
      6 C6         -1.8584   -0.6607    0.0000 CW        1 <0>        0.00000
      7 N1         -2.6120   -0.9962    0.0000 NA        1 <0>        0.00000
      8 N2         -3.1641   -0.3831    0.0000 NB        1 <0>        0.00000
      9 N3         -1.1439   -1.0732    0.0000 N         1 <0>        0.00000
     10 C7         -0.4294   -0.6607    0.0000 C         1 <0>        0.00000
     11 C8          0.2851   -1.0732    0.0000 CT        1 <0>        0.00000
     12 C9          0.9995   -0.6607    0.0000 CA        1 <0>        0.00000
     13 C10         1.7140   -1.0732    0.0000 CA        1 <0>        0.00000
     14 C11         2.4285   -0.6607    0.0000 CB        1 <0>        0.00000
     15 C12         2.4285    0.1643    0.0000 CB        1 <0>        0.00000
     16 C13         1.7140    0.5768    0.0000 CA        1 <0>        0.00000
     17 C14         0.9995    0.1643    0.0000 CA        1 <0>        0.00000
     18 C15         3.1429    0.5768    0.0000 CA        1 <0>        0.00000
     19 C16         3.1429   -1.0732    0.0000 CA        1 <0>        0.00000
     20 C17         3.8574   -0.6607    0.0000 CA        1 <0>        0.00000
     21 C18         3.8574    0.1643    0.0000 CA        1 <0>        0.00000
     22 O1         -0.4294    0.1643    0.0000 O         1 <0>        0.00000
     23 H1         -3.7546    1.5699    0.0000 HC        1 <0>        0.00000
     24 H2         -3.7546    1.5699    0.0000 HC        1 <0>        0.00000
     25 H3         -3.0009    1.9055    0.0000 HC        1 <0>        0.00000
     26 H4         -3.0009    1.9055    0.0000 HC        1 <0>        0.00000
     27 H5         -3.0871    1.0850    0.0000 HC        1 <0>        0.00000
     28 H6         -1.9446    0.1598    0.0000 HA        1 <0>        0.00000
     29 H7         -2.6120   -0.9962    0.0000 H         1 <0>        0.00000
     30 H8         -1.1439   -1.0732    0.0000 H         1 <0>        0.00000
     31 H9          0.2851   -1.0732    0.0000 HC        1 <0>        0.00000
     32 H10         0.2851   -1.0732    0.0000 HC        1 <0>        0.00000
     33 H11         1.7140   -1.0732    0.0000 HA        1 <0>        0.00000
     34 H12         1.7140    0.5768    0.0000 HA        1 <0>        0.00000
     35 H13         0.9995    0.1643    0.0000 HA        1 <0>        0.00000
     36 H14         3.1429    0.5768    0.0000 HA        1 <0>        0.00000
     37 H15         3.1429   -1.0732    0.0000 HA        1 <0>        0.00000
     38 H16         3.8574   -0.6607    0.0000 HA        1 <0>        0.00000
     39 H17         3.8574    0.1643    0.0000 HA        1 <0>        0.00000
@<TRIPOS>BOND
     1    1    2 1
     2    1    3 1
     3    2    3 1
     4    3    4 1
     5    4    5 1
     6    4    8 2
     7    5    6 2
     8    6    7 1
     9    6    9 1
    10    7    8 1
    11    9   10 am
    12   10   11 1
    13   10   22 2
    14   11   12 1
    15   12   13 ar
    16   12   17 ar
    17   13   14 ar
    18   14   15 ar
    19   14   19 ar
    20   15   16 ar
    21   15   18 ar
    22   16   17 ar
    23   18   21 ar
    24   19   20 ar
    25   20   21 ar
    26    1   23 1
    27    1   24 1
    28    2   25 1
    29    2   26 1
    30    3   27 1
    31    5   28 1
    32    7   29 1
    33    9   30 1
    34   11   31 1
    35   11   32 1
    36   13   33 1
    37   16   34 1
    38   17   35 1
    39   18   36 1
    40   19   37 1
    41   20   38 1
    42   21   39 1
@<TRIPOS>SUBSTRUCTURE
     1 <0>         1 GROUP 0 A     ****
@<TRIPOS>MOLECULE
MiniDrugBank_100
   52    55     1     0     0
SMALL
NO_CHARGES

@<TRIPOS>ATOM
      1 C1          1.8036   -0.1138    0.0000 CT        1 <0>        0.00000
      2 C2          0.3045   -1.0964    0.0000 CT        1 <0>        0.00000
      3 C3          1.8036    1.2211    0.0000 CT        1 <0>        0.00000
      4 C4          0.3045    1.3786    0.0000 CT        1 <0>        0.00000
      5 C5          2.2885    0.5536    0.0000 CT        1 <0>        0.00000
      6 C6         -1.1245   -0.2714    0.0000 CT        1 <0>        0.00000
      7 C7         -0.4100    0.9661    0.0000 CM        1 <0>        0.00000
      8 C8         -0.4100   -1.5089    0.0000 CT        1 <0>        0.00000
      9 C9         -1.1245   -1.0964    0.0000 CM        1 <0>        0.00000
     10 C10        -1.8390    0.1411    0.0000 CT        1 <0>        0.00000
     11 C11        -1.8390   -1.5089    0.0000 CM        1 <0>        0.00000
     12 C12        -2.5534   -0.2714    0.0000 CT        1 <0>        0.00000
     13 C13         0.3045   -0.2714    0.0000 CT        1 <0>        0.00000
     14 H1          0.3045    0.5536    0.0000 HC        1 <0>        0.00000
     15 C14        -0.4100    0.1411    0.0000 CT        1 <0>        0.00000
     16 H2         -0.4100   -0.6839    0.0000 HC        1 <0>        0.00000
     17 C15         1.0189    0.9661    0.0000 CT        1 <0>        0.00000
     18 C16         1.0189    1.7911    0.0000 CT        1 <0>        0.00000
     19 C17         1.0189    0.1411    0.0000 CT        1 <0>        0.00000
     20 H3          1.0189   -0.6839    0.0000 HC        1 <0>        0.00000
     21 O1         -3.2679   -1.5089    0.0000 O         1 <0>        0.00000
     22 C18        -2.5534   -1.0964    0.0000 C         1 <0>        0.00000
     23 H4         -1.1245    0.5536    0.0000 HC        1 <0>        0.00000
     24 C19         2.5181    1.6336    0.0000 C2        1 <0>        0.00000
     25 O2          1.8036    2.0461    0.0000 OH        1 <0>        0.00000
     26 C20         0.3044    2.2036    0.0000 CT        1 <0>        0.00000
     27 C21         3.2325    2.0461    0.0000 C2        1 <0>        0.00000
     28 C22        -1.1245    1.3786    0.0000 CM        1 <0>        0.00000
     29 H5          1.8036   -0.1138    0.0000 HC        1 <0>        0.00000
     30 H6          1.8036   -0.1138    0.0000 HC        1 <0>        0.00000
     31 H7          0.3045   -1.0964    0.0000 HC        1 <0>        0.00000
     32 H8          0.3045   -1.0964    0.0000 HC        1 <0>        0.00000
     33 H9          0.3045    1.3786    0.0000 HC        1 <0>        0.00000
     34 H10         0.3045    1.3786    0.0000 HC        1 <0>        0.00000
     35 H11         2.2885    0.5536    0.0000 HC        1 <0>        0.00000
     36 H12         2.2885    0.5536    0.0000 HC        1 <0>        0.00000
     37 H13        -0.4100   -1.5089    0.0000 HC        1 <0>        0.00000
     38 H14        -0.4100   -1.5089    0.0000 HC        1 <0>        0.00000
     39 H15        -1.8390    0.1411    0.0000 HC        1 <0>        0.00000
     40 H16        -1.8390    0.1411    0.0000 HC        1 <0>        0.00000
     41 H17        -1.8390   -1.5089    0.0000 HA        1 <0>        0.00000
     42 H18        -2.5534   -0.2714    0.0000 HC        1 <0>        0.00000
     43 H19        -2.5534   -0.2714    0.0000 HC        1 <0>        0.00000
     44 H20         1.0189    1.7911    0.0000 HC        1 <0>        0.00000
     45 H21         1.0189    1.7911    0.0000 HC        1 <0>        0.00000
     46 H22         1.8036    2.0461    0.0000 HO        1 <0>        0.00000
     47 H23         0.3044    2.2036    0.0000 HC        1 <0>        0.00000
     48 H24         0.3044    2.2036    0.0000 HC        1 <0>        0.00000
     49 H25         0.3044    2.2036    0.0000 HC        1 <0>        0.00000
     50 H26         3.2325    2.0461    0.0000 HC        1 <0>        0.00000
     51 H27        -1.1245    1.3786    0.0000 HA        1 <0>        0.00000
     52 H28        -1.1245    1.3786    0.0000 HA        1 <0>        0.00000
@<TRIPOS>BOND
     1   13   19 1
     2   17   19 1
     3    1   19 1
     4   13   15 1
     5    2   13 1
     6    3   17 1
     7    4   17 1
     8    1    5 1
     9    6   15 1
    10    7   15 1
    11    2    8 1
    12    6    9 1
    13    6   10 1
    14    9   11 2
    15   10   12 1
    16   11   22 1
    17    3    5 1
    18    4    7 1
    19    8    9 1
    20   12   22 1
    21   13   14 1
    22   15   16 1
    23   17   18 1
    24   19   20 1
    25   21   22 2
    26    6   23 1
    27    3   24 1
    28    3   25 1
    29   18   26 1
    30   24   27 3
    31    7   28 2
    32    1   29 1
    33    1   30 1
    34    2   31 1
    35    2   32 1
    36    4   33 1
    37    4   34 1
    38    5   35 1
    39    5   36 1
    40    8   37 1
    41    8   38 1
    42   10   39 1
    43   10   40 1
    44   11   41 1
    45   12   42 1
    46   12   43 1
    47   18   44 1
    48   18   45 1
    49   25   46 1
    50   26   47 1
    51   26   48 1
    52   26   49 1
    53   27   50 1
    54   28   51 1
    55   28   52 1
@<TRIPOS>SUBSTRUCTURE
     1 <0>         1 GROUP 0 A     ****
@<TRIPOS>MOLECULE
TRL
   64    64     1     0     0
SMALL
NO_CHARGES

@<TRIPOS>ATOM
      1 O1         -2.7903    0.5858    0.0000 O         1 <0>        0.00000
      2 C1         -2.0057    0.3309    0.0000 C         1 <0>        0.00000
      3 C2         -1.8342   -0.4761    0.0000 CT        1 <0>        0.00000
      4 C3         -2.4473   -1.0282    0.0000 CT        1 <0>        0.00000
      5 C4         -3.2319   -0.7732    0.0000 CT        1 <0>        0.00000
      6 C5         -1.0496   -0.7311    0.0000 CT        1 <0>        0.00000
      7 N1         -0.3821   -0.2461    0.0000 N         1 <0>        0.00000
      8 C6          0.2853   -0.7311    0.0000 CT        1 <0>        0.00000
      9 C7          0.0304   -1.5157    0.0000 CT        1 <0>        0.00000
     10 C8         -0.7946   -1.5157    0.0000 CT        1 <0>        0.00000
     11 N2         -1.2795   -2.1831    0.0000 N3        1 <0>        0.00000
     12 S1         -0.9440   -2.9368    0.0000 SO        1 <0>        0.00000
     13 O2         -0.6084   -3.6905    0.0000 O2        1 <0>        0.00000
     14 O3         -0.1903   -2.6012    0.0000 O2        1 <0>        0.00000
     15 C9         -1.6977   -3.2724    0.0000 CT        1 <0>        0.00000
     16 C10        -0.3821    0.5789    0.0000 C         1 <0>        0.00000
     17 O4         -1.0966    0.9914    0.0000 O         1 <0>        0.00000
     18 C11         0.3324    0.9914    0.0000 CT        1 <0>        0.00000
     19 C12         0.3324    1.8164    0.0000 CT        1 <0>        0.00000
     20 C13        -0.3821    2.2289    0.0000 CT        1 <0>        0.00000
     21 C14         1.0468    2.2289    0.0000 CT        1 <0>        0.00000
     22 N3          1.0468    0.5789    0.0000 N         1 <0>        0.00000
     23 C15         1.7613    0.9914    0.0000 C         1 <0>        0.00000
     24 O5          1.7613    1.8164    0.0000 O         1 <0>        0.00000
     25 O6          2.4758    0.5789    0.0000 OS        1 <0>        0.00000
     26 C16         3.1902    0.9914    0.0000 CT        1 <0>        0.00000
     27 C17         3.9047    1.4039    0.0000 CT        1 <0>        0.00000
     28 C18         3.6027    0.2769    0.0000 CT        1 <0>        0.00000
     29 C19         2.7777    1.7058    0.0000 CT        1 <0>        0.00000
     30 H1         -2.3895   -0.2957    0.0000 HC        1 <0>        0.00000
     31 H2         -1.1409   -0.1543    0.0000 H1        1 <0>        0.00000
     32 H3         -1.3714   -1.4243    0.0000 H1        1 <0>        0.00000
     33 H4         -0.2427    1.0928    0.0000 H1        1 <0>        0.00000
     34 H5         -2.0057    0.3309    0.0000 H4        1 <0>        0.00000
     35 H6         -2.4473   -1.0282    0.0000 HC        1 <0>        0.00000
     36 H7         -2.4473   -1.0282    0.0000 HC        1 <0>        0.00000
     37 H8         -3.2319   -0.7732    0.0000 HC        1 <0>        0.00000
     38 H9         -3.2319   -0.7732    0.0000 HC        1 <0>        0.00000
     39 H10        -3.2319   -0.7732    0.0000 HC        1 <0>        0.00000
     40 H11         0.2853   -0.7311    0.0000 H1        1 <0>        0.00000
     41 H12         0.2853   -0.7311    0.0000 H1        1 <0>        0.00000
     42 H13         0.0304   -1.5157    0.0000 HC        1 <0>        0.00000
     43 H14         0.0304   -1.5157    0.0000 HC        1 <0>        0.00000
     44 H15        -1.2795   -2.1831    0.0000 H         1 <0>        0.00000
     45 H16        -1.6977   -3.2724    0.0000 H1        1 <0>        0.00000
     46 H17        -1.6977   -3.2724    0.0000 H1        1 <0>        0.00000
     47 H18        -1.6977   -3.2724    0.0000 H1        1 <0>        0.00000
     48 H19         0.3324    1.8164    0.0000 HC        1 <0>        0.00000
     49 H20        -0.3821    2.2289    0.0000 HC        1 <0>        0.00000
     50 H21        -0.3821    2.2289    0.0000 HC        1 <0>        0.00000
     51 H22        -0.3821    2.2289    0.0000 HC        1 <0>        0.00000
     52 H23         1.0468    2.2289    0.0000 HC        1 <0>        0.00000
     53 H24         1.0468    2.2289    0.0000 HC        1 <0>        0.00000
     54 H25         1.0468    2.2289    0.0000 HC        1 <0>        0.00000
     55 H26         1.0468    0.5789    0.0000 H         1 <0>        0.00000
     56 H27         3.9047    1.4039    0.0000 HC        1 <0>        0.00000
     57 H28         3.9047    1.4039    0.0000 HC        1 <0>        0.00000
     58 H29         3.9047    1.4039    0.0000 HC        1 <0>        0.00000
     59 H30         3.6027    0.2769    0.0000 HC        1 <0>        0.00000
     60 H31         3.6027    0.2769    0.0000 HC        1 <0>        0.00000
     61 H32         3.6027    0.2769    0.0000 HC        1 <0>        0.00000
     62 H33         2.7777    1.7058    0.0000 HC        1 <0>        0.00000
     63 H34         2.7777    1.7058    0.0000 HC        1 <0>        0.00000
     64 H35         2.7777    1.7058    0.0000 HC        1 <0>        0.00000
@<TRIPOS>BOND
     1    1    2 2
     2    2    3 1
     3    3    4 1
     4    3    6 1
     5    3   30 1
     6    4    5 1
     7    6    7 1
     8    6   10 1
     9    6   31 1
    10    7    8 1
    11    7   16 am
    12    8    9 1
    13    9   10 1
    14   10   11 1
    15   10   32 1
    16   11   12 1
    17   12   13 2
    18   12   14 2
    19   12   15 1
    20   16   17 2
    21   16   18 1
    22   18   19 1
    23   18   22 1
    24   18   33 1
    25   19   20 1
    26   19   21 1
    27   22   23 am
    28   23   24 2
    29   23   25 1
    30   25   26 1
    31   26   27 1
    32   26   28 1
    33   26   29 1
    34    2   34 1
    35    4   35 1
    36    4   36 1
    37    5   37 1
    38    5   38 1
    39    5   39 1
    40    8   40 1
    41    8   41 1
    42    9   42 1
    43    9   43 1
    44   11   44 1
    45   15   45 1
    46   15   46 1
    47   15   47 1
    48   19   48 1
    49   20   49 1
    50   20   50 1
    51   20   51 1
    52   21   52 1
    53   21   53 1
    54   21   54 1
    55   22   55 1
    56   27   56 1
    57   27   57 1
    58   27   58 1
    59   28   59 1
    60   28   60 1
    61   28   61 1
    62   29   62 1
    63   29   63 1
    64   29   64 1
@<TRIPOS>SUBSTRUCTURE
     1 <0>         1 GROUP 0 A     ****
@<TRIPOS>MOLECULE
528
   66    67     1     0     0
SMALL
NO_CHARGES

@<TRIPOS>ATOM
      1 C1         -4.9492    1.1198    0.0000 CA        1 <0>        0.00000
      2 C2         -5.6952    0.7674    0.0000 CA        1 <0>        0.00000
      3 C3         -5.7630   -0.0548    0.0000 CA        1 <0>        0.00000
      4 C4         -5.0848   -0.5246    0.0000 CA        1 <0>        0.00000
      5 C5         -4.3389   -0.1723    0.0000 CA        1 <0>        0.00000
      6 C6         -4.2711    0.6500    0.0000 CA        1 <0>        0.00000
      7 C7         -3.5251    1.0023    0.0000 CT        1 <0>        0.00000
      8 C8         -2.8470    0.5325    0.0000 CT        1 <0>        0.00000
      9 C9         -2.1010    0.8849    0.0000 CT        1 <0>        0.00000
     10 S1         -1.4229    0.4150    0.0000 SO        1 <0>        0.00000
     11 O1         -1.8927   -0.2631    0.0000 O2        1 <0>        0.00000
     12 O2         -0.9530    1.0932    0.0000 O2        1 <0>        0.00000
     13 N1         -0.7447   -0.0548    0.0000 N3        1 <0>        0.00000
     14 C10         0.0013    0.2976    0.0000 CT        1 <0>        0.00000
     15 C11         0.0691    1.1198    0.0000 CT        1 <0>        0.00000
     16 C12         0.8150    1.4722    0.0000 CT        1 <0>        0.00000
     17 C13        -0.6091    1.5896    0.0000 CT        1 <0>        0.00000
     18 P1          0.6794   -0.1723    0.0000 P         1 <0>        0.00000
     19 O3          0.2096   -0.8504    0.0000 O         1 <0>        0.00000
     20 O4          1.1492    0.5059    0.0000 OH        1 <0>        0.00000
     21 C14         1.3575   -0.6421    0.0000 CT        1 <0>        0.00000
     22 C15         2.1035   -0.2897    0.0000 CT        1 <0>        0.00000
     23 C16         2.1713    0.5325    0.0000 C         1 <0>        0.00000
     24 O5          1.4932    1.0023    0.0000 O         1 <0>        0.00000
     25 O6          2.9173    0.8849    0.0000 OH        1 <0>        0.00000
     26 C17         2.7816   -0.7595    0.0000 CA        1 <0>        0.00000
     27 C18         3.5276   -0.4072    0.0000 CA        1 <0>        0.00000
     28 C19         2.7138   -1.5818    0.0000 CA        1 <0>        0.00000
     29 C20         3.3920   -2.0516    0.0000 CA        1 <0>        0.00000
     30 C21         4.1379   -1.6992    0.0000 CA        1 <0>        0.00000
     31 C22         4.2058   -0.8770    0.0000 CA        1 <0>        0.00000
     32 C23         4.9517   -0.5246    0.0000 CT        1 <0>        0.00000
     33 N2          5.0195    0.2976    0.0000 N3        1 <0>        0.00000
     34 H1         -0.4787    0.6301    0.0000 H1        1 <0>        0.00000
     35 H2          2.0555   -0.8717    0.0000 HC        1 <0>        0.00000
     36 H3         -4.9492    1.1198    0.0000 HA        1 <0>        0.00000
     37 H4         -5.6952    0.7674    0.0000 HA        1 <0>        0.00000
     38 H5         -5.7630   -0.0548    0.0000 HA        1 <0>        0.00000
     39 H6         -5.0848   -0.5246    0.0000 HA        1 <0>        0.00000
     40 H7         -4.3389   -0.1723    0.0000 HA        1 <0>        0.00000
     41 H8         -3.5251    1.0023    0.0000 HC        1 <0>        0.00000
     42 H9         -3.5251    1.0023    0.0000 HC        1 <0>        0.00000
     43 H10        -2.8470    0.5325    0.0000 HC        1 <0>        0.00000
     44 H11        -2.8470    0.5325    0.0000 HC        1 <0>        0.00000
     45 H12        -2.1010    0.8849    0.0000 H1        1 <0>        0.00000
     46 H13        -2.1010    0.8849    0.0000 H1        1 <0>        0.00000
     47 H14        -0.7447   -0.0548    0.0000 H         1 <0>        0.00000
     48 H15         0.0691    1.1198    0.0000 HC        1 <0>        0.00000
     49 H16         0.8150    1.4722    0.0000 HC        1 <0>        0.00000
     50 H17         0.8150    1.4722    0.0000 HC        1 <0>        0.00000
     51 H18         0.8150    1.4722    0.0000 HC        1 <0>        0.00000
     52 H19        -0.6091    1.5896    0.0000 HC        1 <0>        0.00000
     53 H20        -0.6091    1.5896    0.0000 HC        1 <0>        0.00000
     54 H21        -0.6091    1.5896    0.0000 HC        1 <0>        0.00000
     55 H22         1.1492    0.5059    0.0000 HO        1 <0>        0.00000
     56 H23         1.3575   -0.6421    0.0000 HC        1 <0>        0.00000
     57 H24         1.3575   -0.6421    0.0000 HC        1 <0>        0.00000
     58 H25         2.9173    0.8849    0.0000 HO        1 <0>        0.00000
     59 H26         3.5276   -0.4072    0.0000 HA        1 <0>        0.00000
     60 H27         2.7138   -1.5818    0.0000 HA        1 <0>        0.00000
     61 H28         3.3920   -2.0516    0.0000 HA        1 <0>        0.00000
     62 H29         4.1379   -1.6992    0.0000 HA        1 <0>        0.00000
     63 H30         4.9517   -0.5246    0.0000 H1        1 <0>        0.00000
     64 H31         4.9517   -0.5246    0.0000 H1        1 <0>        0.00000
     65 H32         5.0195    0.2976    0.0000 H         1 <0>        0.00000
     66 H33         5.0195    0.2976    0.0000 H         1 <0>        0.00000
@<TRIPOS>BOND
     1    1    6 ar
     2    1    2 ar
     3    2    3 ar
     4    3    4 ar
     5    4    5 ar
     6    5    6 ar
     7    6    7 1
     8    7    8 1
     9    8    9 1
    10    9   10 1
    11   10   13 1
    12   10   11 2
    13   10   12 2
    14   13   14 1
    15   14   15 1
    16   14   18 1
    17   14   34 1
    18   15   16 1
    19   15   17 1
    20   18   19 2
    21   18   21 1
    22   18   20 1
    23   21   22 1
    24   22   26 1
    25   22   23 1
    26   22   35 1
    27   23   24 2
    28   23   25 1
    29   26   27 ar
    30   26   28 ar
    31   27   31 ar
    32   28   29 ar
    33   29   30 ar
    34   30   31 ar
    35   31   32 1
    36   32   33 1
    37    1   36 1
    38    2   37 1
    39    3   38 1
    40    4   39 1
    41    5   40 1
    42    7   41 1
    43    7   42 1
    44    8   43 1
    45    8   44 1
    46    9   45 1
    47    9   46 1
    48   13   47 1
    49   15   48 1
    50   16   49 1
    51   16   50 1
    52   16   51 1
    53   17   52 1
    54   17   53 1
    55   17   54 1
    56   20   55 1
    57   21   56 1
    58   21   57 1
    59   25   58 1
    60   27   59 1
    61   28   60 1
    62   29   61 1
    63   30   62 1
    64   32   63 1
    65   32   64 1
    66   33   65 1
    67   33   66 1
@<TRIPOS>SUBSTRUCTURE
     1 <0>         1 GROUP 0 A     ****
@<TRIPOS>MOLECULE
N5B
   30    32     1     0     0
SMALL
NO_CHARGES

@<TRIPOS>ATOM
      1 C1          1.1651   -1.2417    0.0000 CR        1 <0>        0.00000
      2 C2          1.1651   -2.0667    0.0000 CJ        1 <0>        0.00000
      3 C3          0.4977   -0.7568    0.0000 CC        1 <0>        0.00000
      4 N1          1.8326   -0.7568    0.0000 NB        1 <0>        0.00000
      5 C4          1.5776   -2.7812    0.0000 CJ        1 <0>        0.00000
      6 C5          0.7526   -2.7812    0.0000 CJ        1 <0>        0.00000
      7 C6          0.7526    0.0278    0.0000 CW        1 <0>        0.00000
      8 N2          1.5776    0.0278    0.0000 NA        1 <0>        0.00000
      9 N3          0.2677    0.6953    0.0000 N         1 <0>        0.00000
     10 C7         -0.5528    0.6090    0.0000 C         1 <0>        0.00000
     11 C8         -1.0377    1.2765    0.0000 CA        1 <0>        0.00000
     12 O1         -0.8883   -0.1446    0.0000 O         1 <0>        0.00000
     13 C9         -1.8582    1.1902    0.0000 CA        1 <0>        0.00000
     14 C10        -0.7021    2.0302    0.0000 CA        1 <0>        0.00000
     15 C11        -2.3431    1.8577    0.0000 CA        1 <0>        0.00000
     16 C12        -1.1871    2.6976    0.0000 CA        1 <0>        0.00000
     17 C13        -2.0075    2.6114    0.0000 CA        1 <0>        0.00000
     18 H1          1.1651   -2.0667    0.0000 HC        1 <0>        0.00000
     19 H2          0.4977   -0.7568    0.0000 HA        1 <0>        0.00000
     20 H3          1.5776   -2.7812    0.0000 HC        1 <0>        0.00000
     21 H4          1.5776   -2.7812    0.0000 HC        1 <0>        0.00000
     22 H5          0.7526   -2.7812    0.0000 HC        1 <0>        0.00000
     23 H6          0.7526   -2.7812    0.0000 HC        1 <0>        0.00000
     24 H7          1.5776    0.0278    0.0000 H         1 <0>        0.00000
     25 H8          0.2677    0.6953    0.0000 H         1 <0>        0.00000
     26 H9         -1.8582    1.1902    0.0000 HA        1 <0>        0.00000
     27 H10        -0.7021    2.0302    0.0000 HA        1 <0>        0.00000
     28 H11        -2.3431    1.8577    0.0000 HA        1 <0>        0.00000
     29 H12        -1.1871    2.6976    0.0000 HA        1 <0>        0.00000
     30 H13        -2.0075    2.6114    0.0000 HA        1 <0>        0.00000
@<TRIPOS>BOND
     1    1    2 1
     2    1    3 1
     3    1    4 2
     4    2    5 1
     5    2    6 1
     6    3    7 2
     7    4    8 1
     8    5    6 1
     9    7    8 1
    10    7    9 1
    11    9   10 am
    12   10   11 1
    13   10   12 2
    14   11   13 ar
    15   11   14 ar
    16   13   15 ar
    17   14   16 ar
    18   15   17 ar
    19   16   17 ar
    20    2   18 1
    21    3   19 1
    22    5   20 1
    23    5   21 1
    24    6   22 1
    25    6   23 1
    26    8   24 1
    27    9   25 1
    28   13   26 1
    29   14   27 1
    30   15   28 1
    31   16   29 1
    32   17   30 1
@<TRIPOS>SUBSTRUCTURE
     1 <0>         1 GROUP 0 A     ****
@<TRIPOS>MOLECULE
MN8
   39    41     1     0     0
SMALL
NO_CHARGES

@<TRIPOS>ATOM
      1 C1         -2.4092    0.0725    0.0000 C         1 <0>        0.00000
      2 O1         -2.8942    0.7399    0.0000 O         1 <0>        0.00000
      3 O2         -2.7448   -0.6812    0.0000 OH        1 <0>        0.00000
      4 C2         -1.5888    0.1587    0.0000 CC        1 <0>        0.00000
      5 C3         -1.1763    0.8732    0.0000 CW        1 <0>        0.00000
      6 C4         -1.5118    1.6269    0.0000 CT        1 <0>        0.00000
      7 C5         -1.0269    2.2943    0.0000 CT        1 <0>        0.00000
      8 C6         -2.3323    1.7131    0.0000 CT        1 <0>        0.00000
      9 S1         -0.3693    0.7017    0.0000 S         1 <0>        0.00000
     10 C7         -0.2831   -0.1188    0.0000 CR        1 <0>        0.00000
     11 N1         -1.0367   -0.4544    0.0000 NB        1 <0>        0.00000
     12 C8          0.4314   -0.5313    0.0000 CT        1 <0>        0.00000
     13 N2          0.4314   -1.3563    0.0000 N3        1 <0>        0.00000
     14 C9          1.1459   -1.7688    0.0000 CT        1 <0>        0.00000
     15 C10         1.8604   -1.3563    0.0000 CA        1 <0>        0.00000
     16 C11         1.8604   -0.5313    0.0000 CA        1 <0>        0.00000
     17 C12         1.1459   -0.1188    0.0000 CT        1 <0>        0.00000
     18 C13         2.5748   -0.1188    0.0000 CA        1 <0>        0.00000
     19 C14         3.2893   -0.5313    0.0000 CA        1 <0>        0.00000
     20 C15         3.2893   -1.3563    0.0000 CA        1 <0>        0.00000
     21 C16         2.5748   -1.7688    0.0000 CA        1 <0>        0.00000
     22 H1         -0.0743   -0.8233    0.0000 H1        1 <0>        0.00000
     23 H2         -2.7448   -0.6812    0.0000 HO        1 <0>        0.00000
     24 H3         -1.5118    1.6269    0.0000 HC        1 <0>        0.00000
     25 H4         -1.0269    2.2943    0.0000 HC        1 <0>        0.00000
     26 H5         -1.0269    2.2943    0.0000 HC        1 <0>        0.00000
     27 H6         -1.0269    2.2943    0.0000 HC        1 <0>        0.00000
     28 H7         -2.3323    1.7131    0.0000 HC        1 <0>        0.00000
     29 H8         -2.3323    1.7131    0.0000 HC        1 <0>        0.00000
     30 H9         -2.3323    1.7131    0.0000 HC        1 <0>        0.00000
     31 H10         0.4314   -1.3563    0.0000 H         1 <0>        0.00000
     32 H11         1.1459   -1.7688    0.0000 H1        1 <0>        0.00000
     33 H12         1.1459   -1.7688    0.0000 H1        1 <0>        0.00000
     34 H13         1.1459   -0.1188    0.0000 HC        1 <0>        0.00000
     35 H14         1.1459   -0.1188    0.0000 HC        1 <0>        0.00000
     36 H15         2.5748   -0.1188    0.0000 HA        1 <0>        0.00000
     37 H16         3.2893   -0.5313    0.0000 HA        1 <0>        0.00000
     38 H17         3.2893   -1.3563    0.0000 HA        1 <0>        0.00000
     39 H18         2.5748   -1.7688    0.0000 HA        1 <0>        0.00000
@<TRIPOS>BOND
     1    1    2 2
     2    1    3 1
     3    1    4 1
     4    4    5 2
     5    4   11 1
     6    5    6 1
     7    5    9 1
     8    6    7 1
     9    6    8 1
    10    9   10 1
    11   10   11 2
    12   10   12 1
    13   12   13 1
    14   12   17 1
    15   12   22 1
    16   13   14 1
    17   14   15 1
    18   15   16 ar
    19   15   21 ar
    20   16   17 1
    21   16   18 ar
    22   18   19 ar
    23   19   20 ar
    24   20   21 ar
    25    3   23 1
    26    6   24 1
    27    7   25 1
    28    7   26 1
    29    7   27 1
    30    8   28 1
    31    8   29 1
    32    8   30 1
    33   13   31 1
    34   14   32 1
    35   14   33 1
    36   17   34 1
    37   17   35 1
    38   18   36 1
    39   19   37 1
    40   20   38 1
    41   21   39 1
@<TRIPOS>SUBSTRUCTURE
     1 <0>         1 GROUP 0 A     ****
@<TRIPOS>MOLECULE
MiniDrugBank_105
   39    40     1     0     0
SMALL
NO_CHARGES

@<TRIPOS>ATOM
      1 C1         -0.9162    3.5328    0.0000 CT        1 <0>        0.00000
      2 C2         -0.1410    3.8150    0.0000 CA        1 <0>        0.00000
      3 N1          0.0023    4.6274    0.0000 NC        1 <0>        0.00000
      4 C3          0.7775    4.9096    0.0000 CA        1 <0>        0.00000
      5 C4          1.4095    4.3793    0.0000 CA        1 <0>        0.00000
      6 C5          2.1848    4.6615    0.0000 CT        1 <0>        0.00000
      7 O1          2.3280    5.4739    0.0000 OS        1 <0>        0.00000
      8 P1          3.1033    5.7561    0.0000 P         1 <0>        0.00000
      9 O2          3.8785    6.0383    0.0000 OH        1 <0>        0.00000
     10 O3          2.8211    6.5314    0.0000 OH        1 <0>        0.00000
     11 O4          3.3854    4.9809    0.0000 O         1 <0>        0.00000
     12 C6          1.2663    3.5668    0.0000 CA        1 <0>        0.00000
     13 C7          1.8982    3.0365    0.0000 CT        1 <0>        0.00000
     14 N2          2.6735    3.3187    0.0000 N3        1 <0>        0.00000
     15 C8          3.3055    2.7884    0.0000 CJ        1 <0>        0.00000
     16 C9          3.7180    2.0739    0.0000 CJ        1 <0>        0.00000
     17 C10         2.8930    2.0739    0.0000 CJ        1 <0>        0.00000
     18 C11         3.9375    3.3187    0.0000 C         1 <0>        0.00000
     19 O5          4.7127    3.0365    0.0000 OH        1 <0>        0.00000
     20 O6          3.7942    4.1312    0.0000 O         1 <0>        0.00000
     21 C12         0.4910    3.2847    0.0000 CA        1 <0>        0.00000
     22 O7          0.3477    2.4722    0.0000 OH        1 <0>        0.00000
     23 H1         -0.9162    3.5328    0.0000 HC        1 <0>        0.00000
     24 H2         -0.9162    3.5328    0.0000 HC        1 <0>        0.00000
     25 H3         -0.9162    3.5328    0.0000 HC        1 <0>        0.00000
     26 H4          0.7775    4.9096    0.0000 H4        1 <0>        0.00000
     27 H5          2.1848    4.6615    0.0000 H1        1 <0>        0.00000
     28 H6          2.1848    4.6615    0.0000 H1        1 <0>        0.00000
     29 H7          3.8785    6.0383    0.0000 HO        1 <0>        0.00000
     30 H8          2.8211    6.5314    0.0000 HO        1 <0>        0.00000
     31 H9          1.8982    3.0365    0.0000 H1        1 <0>        0.00000
     32 H10         1.8982    3.0365    0.0000 H1        1 <0>        0.00000
     33 H11         2.6735    3.3187    0.0000 H         1 <0>        0.00000
     34 H12         3.7180    2.0739    0.0000 HC        1 <0>        0.00000
     35 H13         3.7180    2.0739    0.0000 HC        1 <0>        0.00000
     36 H14         2.8930    2.0739    0.0000 HC        1 <0>        0.00000
     37 H15         2.8930    2.0739    0.0000 HC        1 <0>        0.00000
     38 H16         4.7127    3.0365    0.0000 HO        1 <0>        0.00000
     39 H17         0.3477    2.4722    0.0000 HO        1 <0>        0.00000
@<TRIPOS>BOND
     1    1    2 1
     2    2    3 ar
     3    3    4 ar
     4    4    5 ar
     5    5    6 1
     6    6    7 1
     7    7    8 1
     8    8    9 1
     9    8   10 1
    10    8   11 2
    11    5   12 ar
    12   12   13 1
    13   13   14 1
    14   14   15 1
    15   15   16 1
    16   16   17 1
    17   15   17 1
    18   15   18 1
    19   18   19 1
    20   18   20 2
    21   12   21 ar
    22    2   21 ar
    23   21   22 1
    24    1   23 1
    25    1   24 1
    26    1   25 1
    27    4   26 1
    28    6   27 1
    29    6   28 1
    30    9   29 1
    31   10   30 1
    32   13   31 1
    33   13   32 1
    34   14   33 1
    35   16   34 1
    36   16   35 1
    37   17   36 1
    38   17   37 1
    39   19   38 1
    40   22   39 1
@<TRIPOS>SUBSTRUCTURE
     1 <0>         1 GROUP 0 A     ****
@<TRIPOS>MOLECULE
948
   61    64     1     0     0
SMALL
NO_CHARGES

@<TRIPOS>ATOM
      1 S1          7.6202   -0.9711    0.0000 S         1 <0>        0.00000
      2 S2          5.2617    3.5480    0.0000 SO        1 <0>        0.00000
      3 O1          5.4215   -2.6390    0.0000 O         1 <0>        0.00000
      4 O2          7.3231   -3.7037    0.0000 OH        1 <0>        0.00000
      5 O3          8.6820   -3.2622    0.0000 O         1 <0>        0.00000
      6 O4          4.4090   -1.6464    0.0000 O         1 <0>        0.00000
      7 O5          2.8777    0.9037    0.0000 O         1 <0>        0.00000
      8 O6          5.3520    1.7554    0.0000 O         1 <0>        0.00000
      9 O7          5.7796    2.9058    0.0000 O2        1 <0>        0.00000
     10 O8          4.7439    4.1902    0.0000 O2        1 <0>        0.00000
     11 N1          6.8355   -2.0510    0.0000 N         1 <0>        0.00000
     12 N2          5.4215   -0.6381    0.0000 N         1 <0>        0.00000
     13 N3          4.2572    0.5311    0.0000 N         1 <0>        0.00000
     14 N4          3.8902    1.9121    0.0000 N         1 <0>        0.00000
     15 N5          4.6195    3.0301    0.0000 N         1 <0>        0.00000
     16 C1          6.8355   -1.2260    0.0000 CT        1 <0>        0.00000
     17 C2          8.1050   -1.6385    0.0000 CT        1 <0>        0.00000
     18 C3          7.6202   -2.3060    0.0000 CT        1 <0>        0.00000
     19 C4          6.0037   -1.2227    0.0000 CT        1 <0>        0.00000
     20 C5          6.0037   -2.0545    0.0000 C         1 <0>        0.00000
     21 C6          8.7725   -1.1536    0.0000 CT        1 <0>        0.00000
     22 C7          8.7725   -2.1235    0.0000 CT        1 <0>        0.00000
     23 C8          7.8751   -3.0906    0.0000 C         1 <0>        0.00000
     24 C9          4.6242   -0.8500    0.0000 C         1 <0>        0.00000
     25 C10         4.0420   -0.2654    0.0000 CT        1 <0>        0.00000
     26 C11         3.2447   -0.4773    0.0000 CA        1 <0>        0.00000
     27 C12         3.6750    1.1157    0.0000 C         1 <0>        0.00000
     28 C13         3.3723    2.5543    0.0000 CT        1 <0>        0.00000
     29 C14         3.8231    3.2452    0.0000 CT        1 <0>        0.00000
     30 C15         4.6610    2.2061    0.0000 C         1 <0>        0.00000
     31 C16         3.0295   -1.2737    0.0000 CA        1 <0>        0.00000
     32 C17         2.6625    0.1073    0.0000 CA        1 <0>        0.00000
     33 C18         2.2322   -1.4857    0.0000 CA        1 <0>        0.00000
     34 C19         1.8652   -0.1046    0.0000 CA        1 <0>        0.00000
     35 C20         5.9039    4.0659    0.0000 CT        1 <0>        0.00000
     36 C21         1.6500   -0.9011    0.0000 CA        1 <0>        0.00000
     37 H1          6.7336   -0.5740    0.0000 H2        1 <0>        0.00000
     38 H2          7.3231   -3.7037    0.0000 HO        1 <0>        0.00000
     39 H3          5.4215   -0.6381    0.0000 H         1 <0>        0.00000
     40 H4          4.2572    0.5311    0.0000 H         1 <0>        0.00000
     41 H5          7.6202   -2.3060    0.0000 H1        1 <0>        0.00000
     42 H6          6.0037   -1.2227    0.0000 H1        1 <0>        0.00000
     43 H7          8.7725   -1.1536    0.0000 HC        1 <0>        0.00000
     44 H8          8.7725   -1.1536    0.0000 HC        1 <0>        0.00000
     45 H9          8.7725   -1.1536    0.0000 HC        1 <0>        0.00000
     46 H10         8.7725   -2.1235    0.0000 HC        1 <0>        0.00000
     47 H11         8.7725   -2.1235    0.0000 HC        1 <0>        0.00000
     48 H12         8.7725   -2.1235    0.0000 HC        1 <0>        0.00000
     49 H13         4.0420   -0.2654    0.0000 H1        1 <0>        0.00000
     50 H14         3.3723    2.5543    0.0000 H1        1 <0>        0.00000
     51 H15         3.3723    2.5543    0.0000 H1        1 <0>        0.00000
     52 H16         3.8231    3.2452    0.0000 H1        1 <0>        0.00000
     53 H17         3.8231    3.2452    0.0000 H1        1 <0>        0.00000
     54 H18         3.0295   -1.2737    0.0000 HA        1 <0>        0.00000
     55 H19         2.6625    0.1073    0.0000 HA        1 <0>        0.00000
     56 H20         2.2322   -1.4857    0.0000 HA        1 <0>        0.00000
     57 H21         1.8652   -0.1046    0.0000 HA        1 <0>        0.00000
     58 H22         5.9039    4.0659    0.0000 H1        1 <0>        0.00000
     59 H23         5.9039    4.0659    0.0000 H1        1 <0>        0.00000
     60 H24         5.9039    4.0659    0.0000 H1        1 <0>        0.00000
     61 H25         1.6500   -0.9011    0.0000 HA        1 <0>        0.00000
@<TRIPOS>BOND
     1    1   16 1
     2    1   17 1
     3    2    9 2
     4    2   10 2
     5    2   15 1
     6    2   35 1
     7    3   20 2
     8    4   23 1
     9    5   23 2
    10    6   24 2
    11    7   27 2
    12    8   30 2
    13   11   16 1
    14   11   18 1
    15   11   20 am
    16   12   19 1
    17   12   24 am
    18   13   25 1
    19   13   27 am
    20   14   27 am
    21   14   28 1
    22   14   30 am
    23   15   29 1
    24   15   30 am
    25   16   19 1
    26   16   37 1
    27   17   18 1
    28   17   21 1
    29   17   22 1
    30   18   23 1
    31   19   20 1
    32   24   25 1
    33   25   26 1
    34   26   31 ar
    35   26   32 ar
    36   28   29 1
    37   31   33 ar
    38   32   34 ar
    39   33   36 ar
    40   34   36 ar
    41    4   38 1
    42   12   39 1
    43   13   40 1
    44   18   41 1
    45   19   42 1
    46   21   43 1
    47   21   44 1
    48   21   45 1
    49   22   46 1
    50   22   47 1
    51   22   48 1
    52   25   49 1
    53   28   50 1
    54   28   51 1
    55   29   52 1
    56   29   53 1
    57   31   54 1
    58   32   55 1
    59   33   56 1
    60   34   57 1
    61   35   58 1
    62   35   59 1
    63   35   60 1
    64   36   61 1
@<TRIPOS>SUBSTRUCTURE
     1 <0>         1 GROUP 0 A     ****
@<TRIPOS>MOLECULE
MiniDrugBank_107
   33    33     1     0     0
SMALL
NO_CHARGES

@<TRIPOS>ATOM
      1 C1         -0.4950   -3.2926    0.0000 CT        1 <0>        0.00000
      2 C2          0.0884   -2.7092    0.0000 CT        1 <0>        0.00000
      3 C3          0.6718   -3.2926    0.0000 CT        1 <0>        0.00000
      4 N1          0.4582   -4.0895    0.0000 N*        1 <0>        0.00000
      5 C4          0.9774   -4.7306    0.0000 CW        1 <0>        0.00000
      6 C5          0.5281   -5.4225    0.0000 CC        1 <0>        0.00000
      7 N2         -0.2688   -5.2090    0.0000 NB        1 <0>        0.00000
      8 N3         -0.3120   -4.3852    0.0000 NB        1 <0>        0.00000
      9 C6         -0.4950   -2.1259    0.0000 CT        1 <0>        0.00000
     10 N4         -0.2814   -1.3290    0.0000 N         1 <0>        0.00000
     11 C7         -0.8648   -0.7456    0.0000 CM        1 <0>        0.00000
     12 C8         -0.6513    0.0513    0.0000 CM        1 <0>        0.00000
     13 C9         -1.2346    0.6346    0.0000 C         1 <0>        0.00000
     14 O1         -2.0315    0.4211    0.0000 O         1 <0>        0.00000
     15 C10        -1.2919   -2.3394    0.0000 C         1 <0>        0.00000
     16 O2         -1.5054   -3.1363    0.0000 OH        1 <0>        0.00000
     17 O3         -1.8752   -1.7560    0.0000 O         1 <0>        0.00000
     18 S1          0.6718   -2.1259    0.0000 SO        1 <0>        0.00000
     19 O4          0.4582   -1.3290    0.0000 O2        1 <0>        0.00000
     20 O5          1.4686   -2.3394    0.0000 O2        1 <0>        0.00000
     21 H1         -0.4950   -3.2926    0.0000 HC        1 <0>        0.00000
     22 H2         -0.4950   -3.2926    0.0000 HC        1 <0>        0.00000
     23 H3         -0.4950   -3.2926    0.0000 HC        1 <0>        0.00000
     24 H4          0.6718   -3.2926    0.0000 H1        1 <0>        0.00000
     25 H5          0.6718   -3.2926    0.0000 H1        1 <0>        0.00000
     26 H6          0.9774   -4.7306    0.0000 H4        1 <0>        0.00000
     27 H7          0.5281   -5.4225    0.0000 H4        1 <0>        0.00000
     28 H8         -0.4950   -2.1259    0.0000 H1        1 <0>        0.00000
     29 H9         -0.2814   -1.3290    0.0000 H         1 <0>        0.00000
     30 H10        -0.8648   -0.7456    0.0000 H4        1 <0>        0.00000
     31 H11        -0.6513    0.0513    0.0000 HA        1 <0>        0.00000
     32 H12        -1.2346    0.6346    0.0000 H4        1 <0>        0.00000
     33 H13        -1.5054   -3.1363    0.0000 HO        1 <0>        0.00000
@<TRIPOS>BOND
     1    1    2 1
     2    2    3 1
     3    3    4 1
     4    4    5 1
     5    5    6 2
     6    6    7 1
     7    7    8 2
     8    4    8 1
     9    2    9 1
    10    9   10 1
    11   10   11 1
    12   11   12 2
    13   12   13 1
    14   13   14 2
    15    9   15 1
    16   15   16 1
    17   15   17 2
    18    2   18 1
    19   18   19 2
    20   18   20 2
    21    1   21 1
    22    1   22 1
    23    1   23 1
    24    3   24 1
    25    3   25 1
    26    5   26 1
    27    6   27 1
    28    9   28 1
    29   10   29 1
    30   11   30 1
    31   12   31 1
    32   13   32 1
    33   16   33 1
@<TRIPOS>SUBSTRUCTURE
     1 <0>         1 GROUP 0 A     ****
@<TRIPOS>MOLECULE
880
   23    24     1     0     0
SMALL
NO_CHARGES

@<TRIPOS>ATOM
      1 Cl1         2.8075    1.0170    0.0000 CL        1 <0>        0.00000
      2 S1          5.6885   -0.6617    0.0000 SO        1 <0>        0.00000
      3 S2          2.8075   -0.6330    0.0000 SO        1 <0>        0.00000
      4 O1          6.0927   -1.3808    0.0000 O2        1 <0>        0.00000
      5 O2          5.2677   -1.3713    0.0000 O2        1 <0>        0.00000
      6 O3          3.2200   -1.3475    0.0000 O2        1 <0>        0.00000
      7 O4          2.3950    0.0814    0.0000 O2        1 <0>        0.00000
      8 N1          5.6885    1.0456    0.0000 NA        1 <0>        0.00000
      9 N2          6.4360   -0.2377    0.0000 NC        1 <0>        0.00000
     10 N3          2.0930   -1.0455    0.0000 N3        1 <0>        0.00000
     11 C1          4.9509   -0.2205    0.0000 CB        1 <0>        0.00000
     12 C2          4.9509    0.6045    0.0000 CB        1 <0>        0.00000
     13 C3          3.5220   -0.2205    0.0000 CA        1 <0>        0.00000
     14 C4          4.2365   -0.6330    0.0000 CA        1 <0>        0.00000
     15 C5          4.2365    1.0170    0.0000 CA        1 <0>        0.00000
     16 C6          3.5220    0.6045    0.0000 CA        1 <0>        0.00000
     17 C7          6.4360    0.6217    0.0000 CA        1 <0>        0.00000
     18 H1          5.6885    1.0456    0.0000 H         1 <0>        0.00000
     19 H2          2.0930   -1.0455    0.0000 H         1 <0>        0.00000
     20 H3          2.0930   -1.0455    0.0000 H         1 <0>        0.00000
     21 H4          4.2365   -0.6330    0.0000 HA        1 <0>        0.00000
     22 H5          4.2365    1.0170    0.0000 HA        1 <0>        0.00000
     23 H6          6.4360    0.6217    0.0000 H5        1 <0>        0.00000
@<TRIPOS>BOND
     1    1   16 1
     2    2    4 2
     3    2    5 2
     4    2    9 1
     5    2   11 1
     6    3    6 2
     7    3    7 2
     8    3   10 1
     9    3   13 1
    10    8   12 1
    11    8   17 1
    12    9   17 2
    13   11   12 ar
    14   11   14 ar
    15   12   15 ar
    16   13   14 ar
    17   13   16 ar
    18   15   16 ar
    19    8   18 1
    20   10   19 1
    21   10   20 1
    22   14   21 1
    23   15   22 1
    24   17   23 1
@<TRIPOS>SUBSTRUCTURE
     1 <0>         1 GROUP 0 A     ****
@<TRIPOS>MOLECULE
MRA
   38    39     1     0     0
SMALL
NO_CHARGES

@<TRIPOS>ATOM
      1 C1         -2.1880   -2.2391    0.0000 CA        1 <0>        0.00000
      2 C2         -1.4735   -1.8266    0.0000 CA        1 <0>        0.00000
      3 C3         -1.4735   -1.0016    0.0000 CA        1 <0>        0.00000
      4 C4         -2.1880   -0.5891    0.0000 CA        1 <0>        0.00000
      5 C5         -2.9024   -1.0016    0.0000 CA        1 <0>        0.00000
      6 C6         -2.9024   -1.8266    0.0000 CA        1 <0>        0.00000
      7 C7         -3.6169   -2.2391    0.0000 C2        1 <0>        0.00000
      8 C8         -4.3314   -2.6516    0.0000 C2        1 <0>        0.00000
      9 N1         -0.7590   -0.5891    0.0000 N2        1 <0>        0.00000
     10 C9         -0.7590    0.2359    0.0000 CA        1 <0>        0.00000
     11 C10        -0.0446    0.6484    0.0000 CA        1 <0>        0.00000
     12 C11        -0.0446    1.4734    0.0000 CA        1 <0>        0.00000
     13 C12        -0.7590    1.8859    0.0000 CA        1 <0>        0.00000
     14 C13        -1.4735    1.4734    0.0000 CA        1 <0>        0.00000
     15 C14        -1.4735    0.6484    0.0000 CA        1 <0>        0.00000
     16 F1         -2.1880    0.2359    0.0000 F         1 <0>        0.00000
     17 F2         -2.1880    1.8859    0.0000 F         1 <0>        0.00000
     18 C15         0.6699    0.2359    0.0000 C         1 <0>        0.00000
     19 O1          0.6699   -0.5891    0.0000 O         1 <0>        0.00000
     20 N2          1.3844    0.6484    0.0000 N         1 <0>        0.00000
     21 O2          2.0989    0.2359    0.0000 OS        1 <0>        0.00000
     22 C16         2.8133    0.6484    0.0000 CT        1 <0>        0.00000
     23 C17         3.5278    0.2359    0.0000 CT        1 <0>        0.00000
     24 O3          4.2423    0.6484    0.0000 OH        1 <0>        0.00000
     25 F3         -0.7590   -2.2391    0.0000 F         1 <0>        0.00000
     26 H1         -2.1880   -2.2391    0.0000 HA        1 <0>        0.00000
     27 H2         -2.1880   -0.5891    0.0000 HA        1 <0>        0.00000
     28 H3         -2.9024   -1.0016    0.0000 HA        1 <0>        0.00000
     29 H4         -4.3314   -2.6516    0.0000 HC        1 <0>        0.00000
     30 H5         -0.7590   -0.5891    0.0000 H         1 <0>        0.00000
     31 H6         -0.0446    1.4734    0.0000 HA        1 <0>        0.00000
     32 H7         -0.7590    1.8859    0.0000 HA        1 <0>        0.00000
     33 H8          1.3844    0.6484    0.0000 H         1 <0>        0.00000
     34 H9          2.8133    0.6484    0.0000 H1        1 <0>        0.00000
     35 H10         2.8133    0.6484    0.0000 H1        1 <0>        0.00000
     36 H11         3.5278    0.2359    0.0000 H1        1 <0>        0.00000
     37 H12         3.5278    0.2359    0.0000 H1        1 <0>        0.00000
     38 H13         4.2423    0.6484    0.0000 HO        1 <0>        0.00000
@<TRIPOS>BOND
     1    1    2 ar
     2    1    6 ar
     3    2   25 1
     4    2    3 ar
     5    3    9 1
     6    3    4 ar
     7    4    5 ar
     8    5    6 ar
     9    6    7 1
    10    7    8 3
    11    9   10 1
    12   10   15 ar
    13   10   11 ar
    14   11   18 1
    15   11   12 ar
    16   12   13 ar
    17   13   14 ar
    18   14   15 ar
    19   14   17 1
    20   15   16 1
    21   18   19 2
    22   18   20 am
    23   20   21 1
    24   21   22 1
    25   22   23 1
    26   23   24 1
    27    1   26 1
    28    4   27 1
    29    5   28 1
    30    8   29 1
    31    9   30 1
    32   12   31 1
    33   13   32 1
    34   20   33 1
    35   22   34 1
    36   22   35 1
    37   23   36 1
    38   23   37 1
    39   24   38 1
@<TRIPOS>SUBSTRUCTURE
     1 <0>         1 GROUP 0 A     ****
@<TRIPOS>MOLECULE
MiniDrugBank_110
   53    54     1     0     0
SMALL
NO_CHARGES

@<TRIPOS>ATOM
      1 C1          0.0000   -2.4750    0.0000 CT        1 <0>        0.00000
      2 C2          0.7145   -2.8875    0.0000 CT        1 <0>        0.00000
      3 C3          1.4289   -2.4750    0.0000 CT        1 <0>        0.00000
      4 C4          2.1434   -2.8875    0.0000 CT        1 <0>        0.00000
      5 O1          2.8579   -2.4750    0.0000 OS        1 <0>        0.00000
      6 C5          3.5724   -2.8875    0.0000 CA        1 <0>        0.00000
      7 C6          4.2868   -2.4750    0.0000 CA        1 <0>        0.00000
      8 C7          5.0013   -2.8875    0.0000 CA        1 <0>        0.00000
      9 C8          5.0013   -3.7125    0.0000 CA        1 <0>        0.00000
     10 C9          4.2868   -4.1250    0.0000 CA        1 <0>        0.00000
     11 C10         3.5724   -3.7125    0.0000 CA        1 <0>        0.00000
     12 S1          5.7158   -4.1250    0.0000 SO        1 <0>        0.00000
     13 O2          5.3033   -4.8395    0.0000 O2        1 <0>        0.00000
     14 O3          6.1283   -3.4105    0.0000 O2        1 <0>        0.00000
     15 N1          6.4302   -4.5375    0.0000 N3        1 <0>        0.00000
     16 C11         7.1839   -4.2019    0.0000 CT        1 <0>        0.00000
     17 C12         7.7359   -4.8150    0.0000 CT        1 <0>        0.00000
     18 C13         7.3234   -5.5295    0.0000 CT        1 <0>        0.00000
     19 C14         6.5165   -5.3580    0.0000 CT        1 <0>        0.00000
     20 C15         5.9034   -5.9100    0.0000 C         1 <0>        0.00000
     21 O4          5.1188   -5.6551    0.0000 O         1 <0>        0.00000
     22 N2          6.0749   -6.7170    0.0000 N         1 <0>        0.00000
     23 O5          5.4618   -7.2690    0.0000 OH        1 <0>        0.00000
     24 N3          8.5564   -4.7288    0.0000 N3        1 <0>        0.00000
     25 S2          8.8920   -3.9751    0.0000 SO        1 <0>        0.00000
     26 C16         9.2275   -3.2215    0.0000 CT        1 <0>        0.00000
     27 O6          9.6457   -4.3107    0.0000 O2        1 <0>        0.00000
     28 O7          8.1383   -3.6396    0.0000 O2        1 <0>        0.00000
     29 H1          0.0000   -2.4750    0.0000 HC        1 <0>        0.00000
     30 H2          0.0000   -2.4750    0.0000 HC        1 <0>        0.00000
     31 H3          0.0000   -2.4750    0.0000 HC        1 <0>        0.00000
     32 H4          0.7145   -2.8875    0.0000 HC        1 <0>        0.00000
     33 H5          0.7145   -2.8875    0.0000 HC        1 <0>        0.00000
     34 H6          1.4289   -2.4750    0.0000 HC        1 <0>        0.00000
     35 H7          1.4289   -2.4750    0.0000 HC        1 <0>        0.00000
     36 H8          2.1434   -2.8875    0.0000 H1        1 <0>        0.00000
     37 H9          2.1434   -2.8875    0.0000 H1        1 <0>        0.00000
     38 H10         4.2868   -2.4750    0.0000 HA        1 <0>        0.00000
     39 H11         5.0013   -2.8875    0.0000 HA        1 <0>        0.00000
     40 H12         4.2868   -4.1250    0.0000 HA        1 <0>        0.00000
     41 H13         3.5724   -3.7125    0.0000 HA        1 <0>        0.00000
     42 H14         7.1839   -4.2019    0.0000 H1        1 <0>        0.00000
     43 H15         7.1839   -4.2019    0.0000 H1        1 <0>        0.00000
     44 H16         7.7359   -4.8150    0.0000 H1        1 <0>        0.00000
     45 H17         7.3234   -5.5295    0.0000 HC        1 <0>        0.00000
     46 H18         7.3234   -5.5295    0.0000 HC        1 <0>        0.00000
     47 H19         6.5165   -5.3580    0.0000 H1        1 <0>        0.00000
     48 H20         6.0749   -6.7170    0.0000 H         1 <0>        0.00000
     49 H21         5.4618   -7.2690    0.0000 HO        1 <0>        0.00000
     50 H22         8.5564   -4.7288    0.0000 H         1 <0>        0.00000
     51 H23         9.2275   -3.2215    0.0000 H1        1 <0>        0.00000
     52 H24         9.2275   -3.2215    0.0000 H1        1 <0>        0.00000
     53 H25         9.2275   -3.2215    0.0000 H1        1 <0>        0.00000
@<TRIPOS>BOND
     1    1    2 1
     2    2    3 1
     3    3    4 1
     4    4    5 1
     5    5    6 1
     6    6    7 ar
     7    7    8 ar
     8    8    9 ar
     9    9   10 ar
    10   10   11 ar
    11    6   11 ar
    12    9   12 1
    13   12   13 2
    14   12   14 2
    15   12   15 1
    16   15   16 1
    17   16   17 1
    18   17   18 1
    19   18   19 1
    20   15   19 1
    21   19   20 1
    22   20   21 2
    23   20   22 am
    24   22   23 1
    25   17   24 1
    26   24   25 1
    27   25   26 1
    28   25   27 2
    29   25   28 2
    30    1   29 1
    31    1   30 1
    32    1   31 1
    33    2   32 1
    34    2   33 1
    35    3   34 1
    36    3   35 1
    37    4   36 1
    38    4   37 1
    39    7   38 1
    40    8   39 1
    41   10   40 1
    42   11   41 1
    43   16   42 1
    44   16   43 1
    45   17   44 1
    46   18   45 1
    47   18   46 1
    48   19   47 1
    49   22   48 1
    50   23   49 1
    51   24   50 1
    52   26   51 1
    53   26   52 1
    54   26   53 1
@<TRIPOS>SUBSTRUCTURE
     1 <0>         1 GROUP 0 A     ****
@<TRIPOS>MOLECULE
MiniDrugBank_111
   17    11     1     0     0
SMALL
NO_CHARGES

@<TRIPOS>ATOM
      1 Cl1         0.7145    0.0000    0.0000 CL        1 <0>        0.00000
      2 Cl2         0.7145    4.1251    0.0000 CL        1 <0>        0.00000
      3 Cl3         3.7935    4.1251    0.0000 CL        1 <0>        0.00000
      4 Cl4         3.7935    2.0625    0.0000 CL        1 <0>        0.00000
      5 O1          1.4290    0.4125    0.0000 O2        1 <0>        0.00000
      6 O2          1.4290    4.5376    0.0000 O2        1 <0>        0.00000
      7 O3          4.5080    4.5376    0.0000 O2        1 <0>        0.00000
      8 O4          4.5080    2.4751    0.0000 O2        1 <0>        0.00000
      9 O5          0.0000    0.4125    0.0000 Ou        1 <0>        0.00000
     10 O6          0.0000    4.5376    0.0000 Ou        1 <0>        0.00000
     11 O7          3.0791    4.5376    0.0000 Ou        1 <0>        0.00000
     12 O8          3.0791    2.4751    0.0000 Ou        1 <0>        0.00000
     13 O9          3.7935    0.0000    0.0000 OW        1 <0>        0.00000
     14 O10         1.1270    2.0625    0.0000 Ou        1 <0>        0.00000
     15 O11         0.3020    2.0625    0.0000 Ou        1 <0>        0.00000
     16 H1          3.7935    0.0000    0.0000 HW        1 <0>        0.00000
     17 H2          3.7935    0.0000    0.0000 HW        1 <0>        0.00000
@<TRIPOS>BOND
     1    1    5 1
     2    1    9 2
     3    2    6 1
     4    2   10 2
     5    3    7 1
     6    3   11 2
     7    4    8 1
     8    4   12 2
     9   14   15 2
    10   13   16 1
    11   13   17 1
@<TRIPOS>SUBSTRUCTURE
     1 <0>         1 GROUP 0 A     ****
@<TRIPOS>MOLECULE
MiniDrugBank_112
   76    83     1     0     0
SMALL
NO_CHARGES

@<TRIPOS>ATOM
      1 S1          6.6867   -3.9195    0.0000 S         1 <0>        0.00000
      2 S2          2.2404    3.7817    0.0000 S         1 <0>        0.00000
      3 O1          6.1632    2.2248    0.0000 OS        1 <0>        0.00000
      4 O2          9.1988   -0.6225    0.0000 OS        1 <0>        0.00000
      5 O3          8.0036   -1.3126    0.0000 O         1 <0>        0.00000
      6 O4          1.6103   -0.0705    0.0000 O         1 <0>        0.00000
      7 O5          9.5972   -1.3126    0.0000 OS        1 <0>        0.00000
      8 N1          5.4555   -0.4162    0.0000 N*        1 <0>        0.00000
      9 N2          4.6587    0.9638    0.0000 N*        1 <0>        0.00000
     10 N3          2.1177   -1.4232    0.0000 N         1 <0>        0.00000
     11 C1          6.5439    0.6722    0.0000 CT        1 <0>        0.00000
     12 C2          8.0036    0.0676    0.0000 CT        1 <0>        0.00000
     13 C3          6.7502    1.4418    0.0000 CT        1 <0>        0.00000
     14 C4          8.2099    0.8372    0.0000 CT        1 <0>        0.00000
     15 C5          4.6587   -0.4162    0.0000 CB        1 <0>        0.00000
     16 C6          4.2603    0.2738    0.0000 CB        1 <0>        0.00000
     17 C7          4.2548   -1.1413    0.0000 CB        1 <0>        0.00000
     18 C8          3.4304    0.2865    0.0000 CB        1 <0>        0.00000
     19 C9          5.6983   -1.1703    0.0000 CB        1 <0>        0.00000
     20 C10         6.3377   -0.0974    0.0000 CT        1 <0>        0.00000
     21 C11         4.1271    1.5511    0.0000 CB        1 <0>        0.00000
     22 C12         5.0571   -1.6353    0.0000 CB        1 <0>        0.00000
     23 C13         3.4249   -1.1478    0.0000 CA        1 <0>        0.00000
     24 C14         3.4038    1.2283    0.0000 CB        1 <0>        0.00000
     25 C15         3.0098   -0.4290    0.0000 CA        1 <0>        0.00000
     26 C16         8.4020   -0.6225    0.0000 C         1 <0>        0.00000
     27 C17         2.8712   -1.7595    0.0000 CT        1 <0>        0.00000
     28 C18         6.4568   -1.4948    0.0000 CA        1 <0>        0.00000
     29 C19         2.2033   -0.6026    0.0000 C         1 <0>        0.00000
     30 C20         5.1300   -2.4571    0.0000 CA        1 <0>        0.00000
     31 C21         4.2253    2.3702    0.0000 CA        1 <0>        0.00000
     32 C22         2.7285    1.7023    0.0000 CA        1 <0>        0.00000
     33 C23         5.8808   -2.7991    0.0000 CA        1 <0>        0.00000
     34 C24         6.5487   -2.3147    0.0000 CA        1 <0>        0.00000
     35 C25         2.8077    2.5236    0.0000 CA        1 <0>        0.00000
     36 C26         3.5611    2.8598    0.0000 CA        1 <0>        0.00000
     37 C27         5.9603   -3.5919    0.0000 CT        1 <0>        0.00000
     38 C28         2.1608    2.9889    0.0000 CT        1 <0>        0.00000
     39 C29        10.3940   -1.3126    0.0000 CT        1 <0>        0.00000
     40 C30         6.7662   -4.7123    0.0000 CT        1 <0>        0.00000
     41 C31         1.5936    4.2470    0.0000 CT        1 <0>        0.00000
     42 C32         7.4927   -5.0398    0.0000 CT        1 <0>        0.00000
     43 C33         1.6731    5.0398    0.0000 CT        1 <0>        0.00000
     44 H1          6.9151    2.0576    0.0000 H2        1 <0>        0.00000
     45 H2          2.1177   -1.4232    0.0000 H         1 <0>        0.00000
     46 H3          8.0036    0.0676    0.0000 HC        1 <0>        0.00000
     47 H4          8.2099    0.8372    0.0000 HC        1 <0>        0.00000
     48 H5          8.2099    0.8372    0.0000 HC        1 <0>        0.00000
     49 H6          6.3377   -0.0974    0.0000 HC        1 <0>        0.00000
     50 H7          6.3377   -0.0974    0.0000 HC        1 <0>        0.00000
     51 H8          6.3377   -0.0974    0.0000 HC        1 <0>        0.00000
     52 H9          2.8712   -1.7595    0.0000 H1        1 <0>        0.00000
     53 H10         2.8712   -1.7595    0.0000 H1        1 <0>        0.00000
     54 H11         6.4568   -1.4948    0.0000 HA        1 <0>        0.00000
     55 H12         5.1300   -2.4571    0.0000 HA        1 <0>        0.00000
     56 H13         4.2253    2.3702    0.0000 HA        1 <0>        0.00000
     57 H14         2.7285    1.7023    0.0000 HA        1 <0>        0.00000
     58 H15         6.5487   -2.3147    0.0000 HA        1 <0>        0.00000
     59 H16         3.5611    2.8598    0.0000 HA        1 <0>        0.00000
     60 H17         5.9603   -3.5919    0.0000 H1        1 <0>        0.00000
     61 H18         5.9603   -3.5919    0.0000 H1        1 <0>        0.00000
     62 H19         2.1608    2.9889    0.0000 H1        1 <0>        0.00000
     63 H20         2.1608    2.9889    0.0000 H1        1 <0>        0.00000
     64 H21        10.3940   -1.3126    0.0000 H1        1 <0>        0.00000
     65 H22        10.3940   -1.3126    0.0000 H1        1 <0>        0.00000
     66 H23        10.3940   -1.3126    0.0000 H1        1 <0>        0.00000
     67 H24         6.7662   -4.7123    0.0000 H1        1 <0>        0.00000
     68 H25         6.7662   -4.7123    0.0000 H1        1 <0>        0.00000
     69 H26         1.5936    4.2470    0.0000 H1        1 <0>        0.00000
     70 H27         1.5936    4.2470    0.0000 H1        1 <0>        0.00000
     71 H28         7.4927   -5.0398    0.0000 HC        1 <0>        0.00000
     72 H29         7.4927   -5.0398    0.0000 HC        1 <0>        0.00000
     73 H30         7.4927   -5.0398    0.0000 HC        1 <0>        0.00000
     74 H31         1.6731    5.0398    0.0000 HC        1 <0>        0.00000
     75 H32         1.6731    5.0398    0.0000 HC        1 <0>        0.00000
     76 H33         1.6731    5.0398    0.0000 HC        1 <0>        0.00000
@<TRIPOS>BOND
     1    1   37 1
     2    1   40 1
     3    2   38 1
     4    2   41 1
     5    3   11 1
     6    3   13 1
     7    4    7 1
     8    4   26 1
     9    5   26 2
    10    6   29 2
    11    7   39 1
    12    8   11 1
    13    8   15 1
    14    8   19 1
    15    9   13 1
    16    9   16 1
    17    9   21 1
    18   10   27 1
    19   10   29 am
    20   11   12 1
    21   11   20 1
    22   12   14 1
    23   12   26 1
    24   13   14 1
    25   13   44 1
    26   15   16 ar
    27   15   17 ar
    28   16   18 ar
    29   17   22 1
    30   17   23 ar
    31   18   24 1
    32   18   25 ar
    33   19   22 ar
    34   19   28 ar
    35   21   24 ar
    36   21   31 ar
    37   22   30 ar
    38   23   25 ar
    39   23   27 1
    40   24   32 ar
    41   25   29 1
    42   28   34 ar
    43   30   33 ar
    44   31   36 ar
    45   32   35 ar
    46   33   34 ar
    47   33   37 1
    48   35   36 ar
    49   35   38 1
    50   40   42 1
    51   41   43 1
    52   10   45 1
    53   12   46 1
    54   14   47 1
    55   14   48 1
    56   20   49 1
    57   20   50 1
    58   20   51 1
    59   27   52 1
    60   27   53 1
    61   28   54 1
    62   30   55 1
    63   31   56 1
    64   32   57 1
    65   34   58 1
    66   36   59 1
    67   37   60 1
    68   37   61 1
    69   38   62 1
    70   38   63 1
    71   39   64 1
    72   39   65 1
    73   39   66 1
    74   40   67 1
    75   40   68 1
    76   41   69 1
    77   41   70 1
    78   42   71 1
    79   42   72 1
    80   42   73 1
    81   43   74 1
    82   43   75 1
    83   43   76 1
@<TRIPOS>SUBSTRUCTURE
     1 <0>         1 GROUP 0 A     ****
@<TRIPOS>MOLECULE
MiniDrugBank_113
   13    13     1     0     0
SMALL
NO_CHARGES

@<TRIPOS>ATOM
      1 O1          0.0000    0.0000    0.0000 OS        1 <0>        0.00000
      2 C1          0.6674   -0.4849    0.0000 CT        1 <0>        0.00000
      3 N1         -0.6674   -0.4849    0.0000 N         1 <0>        0.00000
      4 C2          0.4125   -1.2695    0.0000 CT        1 <0>        0.00000
      5 N2          0.8974   -1.9370    0.0000 N3        1 <0>        0.00000
      6 C3         -0.4125   -1.2695    0.0000 C         1 <0>        0.00000
      7 O2         -0.8974   -1.9370    0.0000 O         1 <0>        0.00000
      8 H1          0.6674   -0.4849    0.0000 H1        1 <0>        0.00000
      9 H2          0.6674   -0.4849    0.0000 H1        1 <0>        0.00000
     10 H3         -0.6674   -0.4849    0.0000 H         1 <0>        0.00000
     11 H4          0.4125   -1.2695    0.0000 H1        1 <0>        0.00000
     12 H5          0.8974   -1.9370    0.0000 H         1 <0>        0.00000
     13 H6          0.8974   -1.9370    0.0000 H         1 <0>        0.00000
@<TRIPOS>BOND
     1    1    2 1
     2    1    3 1
     3    2    4 1
     4    3    6 am
     5    4    6 1
     6    4    5 1
     7    6    7 2
     8    2    8 1
     9    2    9 1
    10    3   10 1
    11    4   11 1
    12    5   12 1
    13    5   13 1
@<TRIPOS>SUBSTRUCTURE
     1 <0>         1 GROUP 0 A     ****
@<TRIPOS>MOLECULE
MiniDrugBank_114
   45    46     1     0     0
SMALL
NO_CHARGES

@<TRIPOS>ATOM
      1 C1         -0.7366    1.7384    0.0000 CT        1 <0>        0.00000
      2 C2          0.0884    1.7384    0.0000 CT        1 <0>        0.00000
      3 N1          0.0884    0.9134    0.0000 N         1 <0>        0.00000
      4 C3         -0.7366    0.9134    0.0000 C         1 <0>        0.00000
      5 S1          0.6718    0.3300    0.0000 SO        1 <0>        0.00000
      6 O1          1.2551   -0.2533    0.0000 O2        1 <0>        0.00000
      7 O2          1.2684    0.9586    0.0000 O2        1 <0>        0.00000
      8 O3          0.0555   -0.2985    0.0000 O2        1 <0>        0.00000
      9 O4         -1.3200    0.3300    0.0000 O         1 <0>        0.00000
     10 C4          0.6718    2.3218    0.0000 CT        1 <0>        0.00000
     11 N2         -1.4511    2.1509    0.0000 N         1 <0>        0.00000
     12 C5         -2.1655    1.7384    0.0000 C         1 <0>        0.00000
     13 O5         -2.1655    0.9134    0.0000 O         1 <0>        0.00000
     14 C6         -2.8800    2.1509    0.0000 C         1 <0>        0.00000
     15 N3         -2.8800    2.9759    0.0000 NB        1 <0>        0.00000
     16 S2         -4.3791    0.6585    0.0000 S         1 <0>        0.00000
     17 C7         -3.5945    0.9134    0.0000 CW        1 <0>        0.00000
     18 C8         -3.5945    1.7384    0.0000 CC        1 <0>        0.00000
     19 N4         -4.3791    1.9933    0.0000 NB        1 <0>        0.00000
     20 C9         -4.8640    1.3259    0.0000 CR        1 <0>        0.00000
     21 O6         -2.1655    3.3884    0.0000 OS        1 <0>        0.00000
     22 C10        -2.1655    4.2134    0.0000 CT        1 <0>        0.00000
     23 C11        -1.4511    4.6259    0.0000 C         1 <0>        0.00000
     24 O7         -1.4511    5.4509    0.0000 O         1 <0>        0.00000
     25 O8         -0.7366    4.2134    0.0000 OH        1 <0>        0.00000
     26 C12        -2.5780    4.9279    0.0000 CT        1 <0>        0.00000
     27 C13        -2.9624    3.9999    0.0000 CT        1 <0>        0.00000
     28 N5         -5.6890    1.3259    0.0000 N3        1 <0>        0.00000
     29 H1         -0.7366    1.7384    0.0000 H1        1 <0>        0.00000
     30 H2          0.0884    1.7384    0.0000 H1        1 <0>        0.00000
     31 H3          0.6718    2.3218    0.0000 HC        1 <0>        0.00000
     32 H4          0.6718    2.3218    0.0000 HC        1 <0>        0.00000
     33 H5          0.6718    2.3218    0.0000 HC        1 <0>        0.00000
     34 H6         -1.4511    2.1509    0.0000 H         1 <0>        0.00000
     35 H7         -3.5945    0.9134    0.0000 H4        1 <0>        0.00000
     36 H8         -0.7366    4.2134    0.0000 HO        1 <0>        0.00000
     37 H9         -2.5780    4.9279    0.0000 HC        1 <0>        0.00000
     38 H10        -2.5780    4.9279    0.0000 HC        1 <0>        0.00000
     39 H11        -2.5780    4.9279    0.0000 HC        1 <0>        0.00000
     40 H12        -2.9624    3.9999    0.0000 HC        1 <0>        0.00000
     41 H13        -2.9624    3.9999    0.0000 HC        1 <0>        0.00000
     42 H14        -2.9624    3.9999    0.0000 HC        1 <0>        0.00000
     43 H15        -5.6890    1.3259    0.0000 H         1 <0>        0.00000
     44 H16        -5.6890    1.3259    0.0000 H         1 <0>        0.00000
     45 H17        -5.6890    1.3259    0.0000 H         1 <0>        0.00000
@<TRIPOS>BOND
     1    1    2 1
     2    2    3 1
     3    1    4 1
     4    3    4 am
     5    3    5 1
     6    5    6 1
     7    5    7 2
     8    5    8 2
     9    4    9 2
    10    2   10 1
    11    1   11 1
    12   11   12 am
    13   12   13 2
    14   12   14 1
    15   14   18 1
    16   14   15 2
    17   16   17 1
    18   16   20 1
    19   17   18 2
    20   18   19 1
    21   19   20 2
    22   15   21 1
    23   21   22 1
    24   22   23 1
    25   23   24 2
    26   23   25 1
    27   22   26 1
    28   22   27 1
    29   20   28 1
    30    1   29 1
    31    2   30 1
    32   10   31 1
    33   10   32 1
    34   10   33 1
    35   11   34 1
    36   17   35 1
    37   25   36 1
    38   26   37 1
    39   26   38 1
    40   26   39 1
    41   27   40 1
    42   27   41 1
    43   27   42 1
    44   28   43 1
    45   28   44 1
    46   28   45 1
@<TRIPOS>SUBSTRUCTURE
     1 <0>         1 GROUP 0 A     ****
@<TRIPOS>MOLECULE
I11
   68    70     1     0     0
SMALL
NO_CHARGES

@<TRIPOS>ATOM
      1 C1         -4.7449   -0.9025    0.0000 CT        1 <0>        0.00000
      2 C2         -3.9347   -0.7466    0.0000 CT        1 <0>        0.00000
      3 C3         -3.3946   -1.3702    0.0000 CT        1 <0>        0.00000
      4 C4         -3.6647   -2.1497    0.0000 CT        1 <0>        0.00000
      5 C5         -4.4748   -2.3057    0.0000 CT        1 <0>        0.00000
      6 C6         -5.0149   -1.6820    0.0000 CT        1 <0>        0.00000
      7 S1         -2.5845   -1.2143    0.0000 SO        1 <0>        0.00000
      8 O1         -2.4286   -2.0244    0.0000 O2        1 <0>        0.00000
      9 O2         -2.7404   -0.4042    0.0000 O2        1 <0>        0.00000
     10 N1         -1.7744   -1.0584    0.0000 N3        1 <0>        0.00000
     11 C7         -1.5043   -0.2788    0.0000 CT        1 <0>        0.00000
     12 C8         -0.6942   -0.1229    0.0000 C         1 <0>        0.00000
     13 O3         -0.1541   -0.7466    0.0000 O         1 <0>        0.00000
     14 N2         -0.4241    0.6566    0.0000 N         1 <0>        0.00000
     15 C9          0.3860    0.8125    0.0000 CT        1 <0>        0.00000
     16 C10         0.9261    0.1889    0.0000 CT        1 <0>        0.00000
     17 C11         0.6560   -0.5906    0.0000 CT        1 <0>        0.00000
     18 N3          1.1961   -1.2143    0.0000 N2        1 <0>        0.00000
     19 C12         2.0063   -1.0584    0.0000 CA        1 <0>        0.00000
     20 C13         2.2763   -0.2788    0.0000 CA        1 <0>        0.00000
     21 C14         3.0864   -0.1229    0.0000 CA        1 <0>        0.00000
     22 N4          3.6265   -0.7466    0.0000 NC        1 <0>        0.00000
     23 C15         3.3565   -1.5261    0.0000 CA        1 <0>        0.00000
     24 C16         2.5464   -1.6820    0.0000 CA        1 <0>        0.00000
     25 C17         0.6560    1.5921    0.0000 C         1 <0>        0.00000
     26 O4          0.1160    2.2157    0.0000 O         1 <0>        0.00000
     27 N5          1.4662    1.7480    0.0000 N         1 <0>        0.00000
     28 C18         1.7362    2.5276    0.0000 CT        1 <0>        0.00000
     29 C19         2.5464    2.6835    0.0000 CT        1 <0>        0.00000
     30 C20         3.0864    2.0598    0.0000 CT        1 <0>        0.00000
     31 C21         2.8164    1.2803    0.0000 CT        1 <0>        0.00000
     32 C22         2.0063    1.1244    0.0000 CT        1 <0>        0.00000
     33 H1          0.1949    0.2608    0.0000 H1        1 <0>        0.00000
     34 H2         -4.7449   -0.9025    0.0000 HC        1 <0>        0.00000
     35 H3         -4.7449   -0.9025    0.0000 HC        1 <0>        0.00000
     36 H4         -3.9347   -0.7466    0.0000 HC        1 <0>        0.00000
     37 H5         -3.9347   -0.7466    0.0000 HC        1 <0>        0.00000
     38 H6         -3.3946   -1.3702    0.0000 H1        1 <0>        0.00000
     39 H7         -3.6647   -2.1497    0.0000 HC        1 <0>        0.00000
     40 H8         -3.6647   -2.1497    0.0000 HC        1 <0>        0.00000
     41 H9         -4.4748   -2.3057    0.0000 HC        1 <0>        0.00000
     42 H10        -4.4748   -2.3057    0.0000 HC        1 <0>        0.00000
     43 H11        -5.0149   -1.6820    0.0000 HC        1 <0>        0.00000
     44 H12        -5.0149   -1.6820    0.0000 HC        1 <0>        0.00000
     45 H13        -1.7744   -1.0584    0.0000 H         1 <0>        0.00000
     46 H14        -1.5043   -0.2788    0.0000 H1        1 <0>        0.00000
     47 H15        -1.5043   -0.2788    0.0000 H1        1 <0>        0.00000
     48 H16        -0.4241    0.6566    0.0000 H         1 <0>        0.00000
     49 H17         0.9261    0.1889    0.0000 HC        1 <0>        0.00000
     50 H18         0.9261    0.1889    0.0000 HC        1 <0>        0.00000
     51 H19         0.6560   -0.5906    0.0000 H1        1 <0>        0.00000
     52 H20         0.6560   -0.5906    0.0000 H1        1 <0>        0.00000
     53 H21         1.1961   -1.2143    0.0000 H         1 <0>        0.00000
     54 H22         2.2763   -0.2788    0.0000 HA        1 <0>        0.00000
     55 H23         3.0864   -0.1229    0.0000 H4        1 <0>        0.00000
     56 H24         3.6265   -0.7466    0.0000 H         1 <0>        0.00000
     57 H25         3.3565   -1.5261    0.0000 H4        1 <0>        0.00000
     58 H26         2.5464   -1.6820    0.0000 HA        1 <0>        0.00000
     59 H27         1.7362    2.5276    0.0000 H1        1 <0>        0.00000
     60 H28         1.7362    2.5276    0.0000 H1        1 <0>        0.00000
     61 H29         2.5464    2.6835    0.0000 HC        1 <0>        0.00000
     62 H30         2.5464    2.6835    0.0000 HC        1 <0>        0.00000
     63 H31         3.0864    2.0598    0.0000 HC        1 <0>        0.00000
     64 H32         3.0864    2.0598    0.0000 HC        1 <0>        0.00000
     65 H33         2.8164    1.2803    0.0000 HC        1 <0>        0.00000
     66 H34         2.8164    1.2803    0.0000 HC        1 <0>        0.00000
     67 H35         2.0063    1.1244    0.0000 H1        1 <0>        0.00000
     68 H36         2.0063    1.1244    0.0000 H1        1 <0>        0.00000
@<TRIPOS>BOND
     1    1    2 1
     2    1    6 1
     3    2    3 1
     4    3    4 1
     5    3    7 1
     6    4    5 1
     7    5    6 1
     8    7    8 2
     9    7    9 2
    10    7   10 1
    11   10   11 1
    12   11   12 1
    13   12   13 2
    14   12   14 am
    15   14   15 1
    16   15   16 1
    17   15   25 1
    18   15   33 1
    19   16   17 1
    20   17   18 1
    21   18   19 1
    22   19   20 ar
    23   19   24 ar
    24   20   21 ar
    25   21   22 ar
    26   22   23 ar
    27   23   24 ar
    28   25   26 2
    29   25   27 am
    30   27   28 1
    31   27   32 1
    32   28   29 1
    33   29   30 1
    34   30   31 1
    35   31   32 1
    36    1   34 1
    37    1   35 1
    38    2   36 1
    39    2   37 1
    40    3   38 1
    41    4   39 1
    42    4   40 1
    43    5   41 1
    44    5   42 1
    45    6   43 1
    46    6   44 1
    47   10   45 1
    48   11   46 1
    49   11   47 1
    50   14   48 1
    51   16   49 1
    52   16   50 1
    53   17   51 1
    54   17   52 1
    55   18   53 1
    56   20   54 1
    57   21   55 1
    58   22   56 1
    59   23   57 1
    60   24   58 1
    61   28   59 1
    62   28   60 1
    63   29   61 1
    64   29   62 1
    65   30   63 1
    66   30   64 1
    67   31   65 1
    68   31   66 1
    69   32   67 1
    70   32   68 1
@<TRIPOS>SUBSTRUCTURE
     1 <0>         1 GROUP 0 A     ****
@<TRIPOS>MOLECULE
MiniDrugBank_116
   49    52     1     0     0
SMALL
NO_CHARGES

@<TRIPOS>ATOM
      1 O1          7.7254    1.5548    0.0000 OH        1 <0>        0.00000
      2 O2          2.3626   -1.9994    0.0000 OS        1 <0>        0.00000
      3 C1          6.8116    0.5185    0.0000 CT        1 <0>        0.00000
      4 C2          6.8116   -0.3064    0.0000 CT        1 <0>        0.00000
      5 C3          6.0971   -0.7188    0.0000 CT        1 <0>        0.00000
      6 C4          7.5921    0.7699    0.0000 CT        1 <0>        0.00000
      7 C5          6.0971    0.9310    0.0000 CT        1 <0>        0.00000
      8 C6          7.5921   -0.5577    0.0000 CT        1 <0>        0.00000
      9 C7          5.3827    0.5185    0.0000 CT        1 <0>        0.00000
     10 C8          8.0734    0.1061    0.0000 CT        1 <0>        0.00000
     11 C9          6.1102   -1.5781    0.0000 CT        1 <0>        0.00000
     12 C10         6.8116    1.3434    0.0000 CT        1 <0>        0.00000
     13 C11         4.6321   -0.7245    0.0000 CA        1 <0>        0.00000
     14 C12         5.3696   -2.0134    0.0000 CT        1 <0>        0.00000
     15 C13         4.6255   -1.5838    0.0000 CA        1 <0>        0.00000
     16 C14         8.2602    0.9263    0.0000 C2        1 <0>        0.00000
     17 C15         3.8674   -0.2592    0.0000 CA        1 <0>        0.00000
     18 C16         3.8538   -2.0372    0.0000 CA        1 <0>        0.00000
     19 C17         3.0855   -0.6947    0.0000 CA        1 <0>        0.00000
     20 C18         3.0785   -1.5898    0.0000 CA        1 <0>        0.00000
     21 C19         9.0774    1.0528    0.0000 C2        1 <0>        0.00000
     22 H1          6.0759    0.0864    0.0000 HC        1 <0>        0.00000
     23 C20         5.3827   -0.3064    0.0000 CT        1 <0>        0.00000
     24 H2          5.3762   -1.1312    0.0000 HC        1 <0>        0.00000
     25 H3          6.8988   -1.1266    0.0000 HC        1 <0>        0.00000
     26 C21         1.6497   -1.5840    0.0000 CT        1 <0>        0.00000
     27 H4          7.7254    1.5548    0.0000 HO        1 <0>        0.00000
     28 H5          6.0971    0.9310    0.0000 HC        1 <0>        0.00000
     29 H6          6.0971    0.9310    0.0000 HC        1 <0>        0.00000
     30 H7          7.5921   -0.5577    0.0000 HC        1 <0>        0.00000
     31 H8          7.5921   -0.5577    0.0000 HC        1 <0>        0.00000
     32 H9          5.3827    0.5185    0.0000 HC        1 <0>        0.00000
     33 H10         5.3827    0.5185    0.0000 HC        1 <0>        0.00000
     34 H11         8.0734    0.1061    0.0000 HC        1 <0>        0.00000
     35 H12         8.0734    0.1061    0.0000 HC        1 <0>        0.00000
     36 H13         6.1102   -1.5781    0.0000 HC        1 <0>        0.00000
     37 H14         6.1102   -1.5781    0.0000 HC        1 <0>        0.00000
     38 H15         6.8116    1.3434    0.0000 HC        1 <0>        0.00000
     39 H16         6.8116    1.3434    0.0000 HC        1 <0>        0.00000
     40 H17         6.8116    1.3434    0.0000 HC        1 <0>        0.00000
     41 H18         5.3696   -2.0134    0.0000 HC        1 <0>        0.00000
     42 H19         5.3696   -2.0134    0.0000 HC        1 <0>        0.00000
     43 H20         3.8674   -0.2592    0.0000 HA        1 <0>        0.00000
     44 H21         3.8538   -2.0372    0.0000 HA        1 <0>        0.00000
     45 H22         3.0855   -0.6947    0.0000 HA        1 <0>        0.00000
     46 H23         9.0774    1.0528    0.0000 HC        1 <0>        0.00000
     47 H24         1.6497   -1.5840    0.0000 H1        1 <0>        0.00000
     48 H25         1.6497   -1.5840    0.0000 H1        1 <0>        0.00000
     49 H26         1.6497   -1.5840    0.0000 H1        1 <0>        0.00000
@<TRIPOS>BOND
     1    1    6 1
     2    2   20 1
     3    3    4 1
     4    3    6 1
     5    3    7 1
     6    3   12 1
     7    4    5 1
     8    4    8 1
     9    5   11 1
    10    5   22 1
    11    6   10 1
    12    6   16 1
    13    7    9 1
    14    8   10 1
    15   11   14 1
    16   13   15 ar
    17   13   17 ar
    18   14   15 1
    19   15   18 ar
    20   16   21 3
    21   17   19 ar
    22   18   20 ar
    23   19   20 ar
    24    5   23 1
    25    9   23 1
    26   13   23 1
    27   23   24 1
    28    4   25 1
    29    2   26 1
    30    1   27 1
    31    7   28 1
    32    7   29 1
    33    8   30 1
    34    8   31 1
    35    9   32 1
    36    9   33 1
    37   10   34 1
    38   10   35 1
    39   11   36 1
    40   11   37 1
    41   12   38 1
    42   12   39 1
    43   12   40 1
    44   14   41 1
    45   14   42 1
    46   17   43 1
    47   18   44 1
    48   19   45 1
    49   21   46 1
    50   26   47 1
    51   26   48 1
    52   26   49 1
@<TRIPOS>SUBSTRUCTURE
     1 <0>         1 GROUP 0 A     ****
@<TRIPOS>MOLECULE
MiniDrugBank_117
   40    42     1     0     0
SMALL
NO_CHARGES

@<TRIPOS>ATOM
      1 S1          4.7593   -0.4259    0.0000 S         1 <0>        0.00000
      2 N1          2.8876    0.4678    0.0000 N3        1 <0>        0.00000
      3 C1          3.3001   -0.2467    0.0000 CT        1 <0>        0.00000
      4 C2          4.0145   -0.6592    0.0000 CT        1 <0>        0.00000
      5 C3          2.5856   -0.6592    0.0000 CT        1 <0>        0.00000
      6 C4          4.0145   -1.4842    0.0000 CT        1 <0>        0.00000
      7 C5          2.5856   -1.4842    0.0000 CT        1 <0>        0.00000
      8 C6          2.0625    0.4678    0.0000 CT        1 <0>        0.00000
      9 C7          3.3001    1.1823    0.0000 CT        1 <0>        0.00000
     10 C8          3.3001   -1.8967    0.0000 CT        1 <0>        0.00000
     11 C9          4.0753    0.0355    0.0000 CW        1 <0>        0.00000
     12 C10         1.6500    1.1823    0.0000 CT        1 <0>        0.00000
     13 C11         2.8876    1.8967    0.0000 CT        1 <0>        0.00000
     14 C12         2.0625    1.8967    0.0000 CT        1 <0>        0.00000
     15 C13         4.3027    0.8285    0.0000 CC        1 <0>        0.00000
     16 C14         5.1272    0.8573    0.0000 CC        1 <0>        0.00000
     17 C15         5.4094    0.0821    0.0000 CW        1 <0>        0.00000
     18 H1          4.0145   -0.6592    0.0000 HC        1 <0>        0.00000
     19 H2          4.0145   -0.6592    0.0000 HC        1 <0>        0.00000
     20 H3          2.5856   -0.6592    0.0000 HC        1 <0>        0.00000
     21 H4          2.5856   -0.6592    0.0000 HC        1 <0>        0.00000
     22 H5          4.0145   -1.4842    0.0000 HC        1 <0>        0.00000
     23 H6          4.0145   -1.4842    0.0000 HC        1 <0>        0.00000
     24 H7          2.5856   -1.4842    0.0000 HC        1 <0>        0.00000
     25 H8          2.5856   -1.4842    0.0000 HC        1 <0>        0.00000
     26 H9          2.0625    0.4678    0.0000 H1        1 <0>        0.00000
     27 H10         2.0625    0.4678    0.0000 H1        1 <0>        0.00000
     28 H11         3.3001    1.1823    0.0000 H1        1 <0>        0.00000
     29 H12         3.3001    1.1823    0.0000 H1        1 <0>        0.00000
     30 H13         3.3001   -1.8967    0.0000 HC        1 <0>        0.00000
     31 H14         3.3001   -1.8967    0.0000 HC        1 <0>        0.00000
     32 H15         1.6500    1.1823    0.0000 HC        1 <0>        0.00000
     33 H16         1.6500    1.1823    0.0000 HC        1 <0>        0.00000
     34 H17         2.8876    1.8967    0.0000 HC        1 <0>        0.00000
     35 H18         2.8876    1.8967    0.0000 HC        1 <0>        0.00000
     36 H19         2.0625    1.8967    0.0000 HC        1 <0>        0.00000
     37 H20         2.0625    1.8967    0.0000 HC        1 <0>        0.00000
     38 H21         4.3027    0.8285    0.0000 HA        1 <0>        0.00000
     39 H22         5.1272    0.8573    0.0000 HA        1 <0>        0.00000
     40 H23         5.4094    0.0821    0.0000 H4        1 <0>        0.00000
@<TRIPOS>BOND
     1    1   11 1
     2    1   17 1
     3    2    3 1
     4    2    8 1
     5    2    9 1
     6    3    4 1
     7    3    5 1
     8    3   11 1
     9    4    6 1
    10    5    7 1
    11    6   10 1
    12    7   10 1
    13    8   12 1
    14    9   13 1
    15   11   15 2
    16   12   14 1
    17   13   14 1
    18   15   16 1
    19   16   17 2
    20    4   18 1
    21    4   19 1
    22    5   20 1
    23    5   21 1
    24    6   22 1
    25    6   23 1
    26    7   24 1
    27    7   25 1
    28    8   26 1
    29    8   27 1
    30    9   28 1
    31    9   29 1
    32   10   30 1
    33   10   31 1
    34   12   32 1
    35   12   33 1
    36   13   34 1
    37   13   35 1
    38   14   36 1
    39   14   37 1
    40   15   38 1
    41   16   39 1
    42   17   40 1
@<TRIPOS>SUBSTRUCTURE
     1 <0>         1 GROUP 0 A     ****
@<TRIPOS>MOLECULE
PGJ
   49    52     1     0     0
SMALL
NO_CHARGES

@<TRIPOS>ATOM
      1 C1         -0.6226   -1.1311    0.0000 CW        1 <0>        0.00000
      2 N1          0.0448   -1.6160    0.0000 N*        1 <0>        0.00000
      3 O1         -0.2101   -2.4006    0.0000 OS        1 <0>        0.00000
      4 C2         -1.0351   -2.4006    0.0000 C         1 <0>        0.00000
      5 C3         -1.2901   -1.6160    0.0000 CC        1 <0>        0.00000
      6 C4          0.8294   -1.3611    0.0000 CT        1 <0>        0.00000
      7 O2          1.4425   -1.9131    0.0000 OS        1 <0>        0.00000
      8 C5          2.2272   -1.6582    0.0000 CT        1 <0>        0.00000
      9 C6          2.8403   -2.2102    0.0000 CT        1 <0>        0.00000
     10 C7         -0.6226   -0.3061    0.0000 CA        1 <0>        0.00000
     11 C8         -1.3371    0.1064    0.0000 CA        1 <0>        0.00000
     12 C9         -1.3371    0.9314    0.0000 CA        1 <0>        0.00000
     13 N2         -0.6226    1.3439    0.0000 NC        1 <0>        0.00000
     14 C10         0.0919    0.9314    0.0000 CA        1 <0>        0.00000
     15 N3          0.0919    0.1064    0.0000 NC        1 <0>        0.00000
     16 O3          0.8063    1.3439    0.0000 OS        1 <0>        0.00000
     17 C11         0.8063    2.1689    0.0000 CA        1 <0>        0.00000
     18 C12         0.0919    2.5814    0.0000 CA        1 <0>        0.00000
     19 C13         0.0919    3.4064    0.0000 CA        1 <0>        0.00000
     20 C14         0.8063    3.8189    0.0000 CA        1 <0>        0.00000
     21 C15         1.5208    3.4064    0.0000 CA        1 <0>        0.00000
     22 C16         1.5208    2.5814    0.0000 CA        1 <0>        0.00000
     23 O4          2.2353    2.1689    0.0000 OH        1 <0>        0.00000
     24 C17        -2.0747   -1.3611    0.0000 CA        1 <0>        0.00000
     25 C18        -2.6878   -1.9131    0.0000 CA        1 <0>        0.00000
     26 C19        -3.4724   -1.6582    0.0000 CA        1 <0>        0.00000
     27 C20        -3.6439   -0.8512    0.0000 CA        1 <0>        0.00000
     28 C21        -3.0308   -0.2992    0.0000 CA        1 <0>        0.00000
     29 C22        -2.2462   -0.5541    0.0000 CA        1 <0>        0.00000
     30 F1         -4.4285   -0.5963    0.0000 F         1 <0>        0.00000
     31 O5         -1.5200   -3.0681    0.0000 O         1 <0>        0.00000
     32 H1          0.8294   -1.3611    0.0000 H2        1 <0>        0.00000
     33 H2          0.8294   -1.3611    0.0000 H2        1 <0>        0.00000
     34 H3          2.2272   -1.6582    0.0000 H1        1 <0>        0.00000
     35 H4          2.2272   -1.6582    0.0000 H1        1 <0>        0.00000
     36 H5          2.8403   -2.2102    0.0000 HC        1 <0>        0.00000
     37 H6          2.8403   -2.2102    0.0000 HC        1 <0>        0.00000
     38 H7          2.8403   -2.2102    0.0000 HC        1 <0>        0.00000
     39 H8         -1.3371    0.1064    0.0000 HA        1 <0>        0.00000
     40 H9         -1.3371    0.9314    0.0000 H4        1 <0>        0.00000
     41 H10         0.0919    2.5814    0.0000 HA        1 <0>        0.00000
     42 H11         0.0919    3.4064    0.0000 HA        1 <0>        0.00000
     43 H12         0.8063    3.8189    0.0000 HA        1 <0>        0.00000
     44 H13         1.5208    3.4064    0.0000 HA        1 <0>        0.00000
     45 H14         2.2353    2.1689    0.0000 HO        1 <0>        0.00000
     46 H15        -2.6878   -1.9131    0.0000 HA        1 <0>        0.00000
     47 H16        -3.4724   -1.6582    0.0000 HA        1 <0>        0.00000
     48 H17        -3.0308   -0.2992    0.0000 HA        1 <0>        0.00000
     49 H18        -2.2462   -0.5541    0.0000 HA        1 <0>        0.00000
@<TRIPOS>BOND
     1    1    2 1
     2    1    5 2
     3    1   10 1
     4    2    3 1
     5    2    6 1
     6    3    4 1
     7    4    5 1
     8    4   31 2
     9    5   24 1
    10    6    7 1
    11    7    8 1
    12    8    9 1
    13   10   11 ar
    14   10   15 ar
    15   11   12 ar
    16   12   13 ar
    17   13   14 ar
    18   14   15 ar
    19   14   16 1
    20   16   17 1
    21   17   18 ar
    22   17   22 ar
    23   18   19 ar
    24   19   20 ar
    25   20   21 ar
    26   21   22 ar
    27   22   23 1
    28   24   25 ar
    29   24   29 ar
    30   25   26 ar
    31   26   27 ar
    32   27   28 ar
    33   27   30 1
    34   28   29 ar
    35    6   32 1
    36    6   33 1
    37    8   34 1
    38    8   35 1
    39    9   36 1
    40    9   37 1
    41    9   38 1
    42   11   39 1
    43   12   40 1
    44   18   41 1
    45   19   42 1
    46   20   43 1
    47   21   44 1
    48   23   45 1
    49   25   46 1
    50   26   47 1
    51   28   48 1
    52   29   49 1
@<TRIPOS>SUBSTRUCTURE
     1 <0>         1 GROUP 0 A     ****
@<TRIPOS>MOLECULE
ZST
   41    44     1     0     0
SMALL
NO_CHARGES

@<TRIPOS>ATOM
      1 C1         -1.9032    0.4637    0.0000 C         1 <0>        0.00000
      2 O1         -2.3157    1.1781    0.0000 O         1 <0>        0.00000
      3 C2         -2.3157   -0.2508    0.0000 CB        1 <0>        0.00000
      4 C3         -1.9032   -0.9653    0.0000 CB        1 <0>        0.00000
      5 C4         -1.0782   -0.9653    0.0000 CA        1 <0>        0.00000
      6 C5         -3.1407   -0.2508    0.0000 CA        1 <0>        0.00000
      7 C6         -3.5532   -0.9653    0.0000 CA        1 <0>        0.00000
      8 C7         -3.1407   -1.6798    0.0000 CA        1 <0>        0.00000
      9 C8         -2.3157   -1.6798    0.0000 CA        1 <0>        0.00000
     10 N1         -1.0782    0.4637    0.0000 N         1 <0>        0.00000
     11 N2         -0.6657   -0.2508    0.0000 NC        1 <0>        0.00000
     12 C9         -0.6657    1.1781    0.0000 CT        1 <0>        0.00000
     13 C10         0.1593    1.1781    0.0000 CR        1 <0>        0.00000
     14 C11         1.4288    0.7656    0.0000 CB        1 <0>        0.00000
     15 C12         1.4288    1.5906    0.0000 CB        1 <0>        0.00000
     16 C13         2.1433    0.3531    0.0000 CA        1 <0>        0.00000
     17 C14         2.8578    0.7656    0.0000 CA        1 <0>        0.00000
     18 C15         2.8578    1.5906    0.0000 CA        1 <0>        0.00000
     19 C16         2.1433    2.0031    0.0000 CA        1 <0>        0.00000
     20 N3          0.6442    1.8456    0.0000 NB        1 <0>        0.00000
     21 S1          0.6442    0.5107    0.0000 S         1 <0>        0.00000
     22 C17        -0.6657   -1.6798    0.0000 CT        1 <0>        0.00000
     23 C18         0.1593   -1.6798    0.0000 C         1 <0>        0.00000
     24 O2          0.5718   -0.9653    0.0000 O         1 <0>        0.00000
     25 O3          0.5718   -2.3942    0.0000 OH        1 <0>        0.00000
     26 C19         3.5722    2.0031    0.0000 CT        1 <0>        0.00000
     27 F1          4.2867    2.4156    0.0000 F         1 <0>        0.00000
     28 F2          3.9847    1.2887    0.0000 F         1 <0>        0.00000
     29 F3          3.1597    2.7176    0.0000 F         1 <0>        0.00000
     30 H1         -3.1407   -0.2508    0.0000 HA        1 <0>        0.00000
     31 H2         -3.5532   -0.9653    0.0000 HA        1 <0>        0.00000
     32 H3         -3.1407   -1.6798    0.0000 HA        1 <0>        0.00000
     33 H4         -2.3157   -1.6798    0.0000 HA        1 <0>        0.00000
     34 H5         -0.6657    1.1781    0.0000 H1        1 <0>        0.00000
     35 H6         -0.6657    1.1781    0.0000 H1        1 <0>        0.00000
     36 H7          2.1433    0.3531    0.0000 HA        1 <0>        0.00000
     37 H8          2.8578    0.7656    0.0000 HA        1 <0>        0.00000
     38 H9          2.1433    2.0031    0.0000 HA        1 <0>        0.00000
     39 H10        -0.6657   -1.6798    0.0000 HC        1 <0>        0.00000
     40 H11        -0.6657   -1.6798    0.0000 HC        1 <0>        0.00000
     41 H12         0.5718   -2.3942    0.0000 HO        1 <0>        0.00000
@<TRIPOS>BOND
     1    1    2 2
     2    1    3 1
     3    1   10 am
     4    3    4 ar
     5    3    6 ar
     6    4    5 1
     7    4    9 ar
     8    5   11 2
     9    5   22 1
    10    6    7 ar
    11    7    8 ar
    12    8    9 ar
    13   10   11 1
    14   10   12 1
    15   12   13 1
    16   13   20 2
    17   13   21 1
    18   14   15 ar
    19   14   16 ar
    20   14   21 1
    21   15   19 ar
    22   15   20 1
    23   16   17 ar
    24   17   18 ar
    25   18   19 ar
    26   18   26 1
    27   22   23 1
    28   23   24 2
    29   23   25 1
    30   26   27 1
    31   26   28 1
    32   26   29 1
    33    6   30 1
    34    7   31 1
    35    8   32 1
    36    9   33 1
    37   12   34 1
    38   12   35 1
    39   16   36 1
    40   17   37 1
    41   19   38 1
    42   22   39 1
    43   22   40 1
    44   25   41 1
@<TRIPOS>SUBSTRUCTURE
     1 <0>         1 GROUP 0 A     ****
@<TRIPOS>MOLECULE
MiniDrugBank_120
   71    71     1     0     0
SMALL
NO_CHARGES

@<TRIPOS>ATOM
      1 Cl1        10.7879    5.4274    0.0000 CL        1 <0>        0.00000
      2 O1          7.9804    5.4616    0.0000 O         1 <0>        0.00000
      3 O2          8.6949    9.1742    0.0000 O         1 <0>        0.00000
      4 O3          0.4430    5.4274    0.0000 OW        1 <0>        0.00000
      5 N1          4.4080    4.2241    0.0000 N3        1 <0>        0.00000
      6 N2          6.5514    5.4616    0.0000 N         1 <0>        0.00000
      7 N3          7.2659    9.1742    0.0000 N         1 <0>        0.00000
      8 C1          5.1225    4.6366    0.0000 CT        1 <0>        0.00000
      9 C2          5.8369    4.2241    0.0000 CT        1 <0>        0.00000
     10 C3          5.1225    5.4616    0.0000 CT        1 <0>        0.00000
     11 C4          6.5514    4.6366    0.0000 CT        1 <0>        0.00000
     12 C5          5.8369    5.8741    0.0000 CT        1 <0>        0.00000
     13 C6          4.4080    3.3991    0.0000 CT        1 <0>        0.00000
     14 C7          3.6934    4.6366    0.0000 CT        1 <0>        0.00000
     15 C8          7.2659    5.8741    0.0000 C         1 <0>        0.00000
     16 C9          3.6934    2.9866    0.0000 CT        1 <0>        0.00000
     17 C10         7.2659    6.6991    0.0000 CA        1 <0>        0.00000
     18 C11         3.6934    2.1615    0.0000 CA        1 <0>        0.00000
     19 C12         6.5514    7.1117    0.0000 CA        1 <0>        0.00000
     20 C13         7.9804    7.1117    0.0000 CA        1 <0>        0.00000
     21 C14         6.5514    7.9367    0.0000 CA        1 <0>        0.00000
     22 C15         7.9804    7.9367    0.0000 CA        1 <0>        0.00000
     23 C16         7.2659    8.3492    0.0000 CA        1 <0>        0.00000
     24 C17         2.9790    1.7490    0.0000 CA        1 <0>        0.00000
     25 C18         4.4080    1.7490    0.0000 CA        1 <0>        0.00000
     26 C19         5.8369    8.3492    0.0000 CT        1 <0>        0.00000
     27 C20         8.6949    8.3492    0.0000 CT        1 <0>        0.00000
     28 C21         2.9790    0.9240    0.0000 CA        1 <0>        0.00000
     29 C22         4.4080    0.9240    0.0000 CA        1 <0>        0.00000
     30 C23         3.6934    0.5115    0.0000 CA        1 <0>        0.00000
     31 C24         7.9804    9.5867    0.0000 C         1 <0>        0.00000
     32 C25         7.9804   10.4117    0.0000 CT        1 <0>        0.00000
     33 C26         8.6949   10.8242    0.0000 CT        1 <0>        0.00000
     34 H1         10.7879    5.4274    0.0000 HC        1 <0>        0.00000
     35 H2          0.4430    5.4274    0.0000 HW        1 <0>        0.00000
     36 H3          0.4430    5.4274    0.0000 HW        1 <0>        0.00000
     37 H4          7.2659    9.1742    0.0000 H         1 <0>        0.00000
     38 H5          5.1225    4.6366    0.0000 H1        1 <0>        0.00000
     39 H6          5.8369    4.2241    0.0000 HC        1 <0>        0.00000
     40 H7          5.8369    4.2241    0.0000 HC        1 <0>        0.00000
     41 H8          5.1225    5.4616    0.0000 HC        1 <0>        0.00000
     42 H9          5.1225    5.4616    0.0000 HC        1 <0>        0.00000
     43 H10         6.5514    4.6366    0.0000 H1        1 <0>        0.00000
     44 H11         6.5514    4.6366    0.0000 H1        1 <0>        0.00000
     45 H12         5.8369    5.8741    0.0000 H1        1 <0>        0.00000
     46 H13         5.8369    5.8741    0.0000 H1        1 <0>        0.00000
     47 H14         4.4080    3.3991    0.0000 H1        1 <0>        0.00000
     48 H15         4.4080    3.3991    0.0000 H1        1 <0>        0.00000
     49 H16         3.6934    4.6366    0.0000 H1        1 <0>        0.00000
     50 H17         3.6934    4.6366    0.0000 H1        1 <0>        0.00000
     51 H18         3.6934    4.6366    0.0000 H1        1 <0>        0.00000
     52 H19         3.6934    2.9866    0.0000 HC        1 <0>        0.00000
     53 H20         3.6934    2.9866    0.0000 HC        1 <0>        0.00000
     54 H21         6.5514    7.1117    0.0000 HA        1 <0>        0.00000
     55 H22         7.9804    7.1117    0.0000 HA        1 <0>        0.00000
     56 H23         2.9790    1.7490    0.0000 HA        1 <0>        0.00000
     57 H24         4.4080    1.7490    0.0000 HA        1 <0>        0.00000
     58 H25         5.8369    8.3492    0.0000 HC        1 <0>        0.00000
     59 H26         5.8369    8.3492    0.0000 HC        1 <0>        0.00000
     60 H27         5.8369    8.3492    0.0000 HC        1 <0>        0.00000
     61 H28         8.6949    8.3492    0.0000 HC        1 <0>        0.00000
     62 H29         8.6949    8.3492    0.0000 HC        1 <0>        0.00000
     63 H30         8.6949    8.3492    0.0000 HC        1 <0>        0.00000
     64 H31         2.9790    0.9240    0.0000 HA        1 <0>        0.00000
     65 H32         4.4080    0.9240    0.0000 HA        1 <0>        0.00000
     66 H33         3.6934    0.5115    0.0000 HA        1 <0>        0.00000
     67 H34         7.9804   10.4117    0.0000 HC        1 <0>        0.00000
     68 H35         7.9804   10.4117    0.0000 HC        1 <0>        0.00000
     69 H36         8.6949   10.8242    0.0000 HC        1 <0>        0.00000
     70 H37         8.6949   10.8242    0.0000 HC        1 <0>        0.00000
     71 H38         8.6949   10.8242    0.0000 HC        1 <0>        0.00000
@<TRIPOS>BOND
     1    2   15 2
     2    3   31 2
     3    5    8 1
     4    5   13 1
     5    5   14 1
     6    6   11 1
     7    6   12 1
     8    6   15 am
     9    7   23 1
    10    7   31 am
    11    8    9 1
    12    8   10 1
    13    9   11 1
    14   10   12 1
    15   13   16 1
    16   15   17 1
    17   16   18 1
    18   17   19 ar
    19   17   20 ar
    20   18   24 ar
    21   18   25 ar
    22   19   21 ar
    23   20   22 ar
    24   21   23 ar
    25   21   26 1
    26   22   23 ar
    27   22   27 1
    28   24   28 ar
    29   25   29 ar
    30   28   30 ar
    31   29   30 ar
    32   31   32 1
    33   32   33 1
    34    1   34 1
    35    4   35 1
    36    4   36 1
    37    7   37 1
    38    8   38 1
    39    9   39 1
    40    9   40 1
    41   10   41 1
    42   10   42 1
    43   11   43 1
    44   11   44 1
    45   12   45 1
    46   12   46 1
    47   13   47 1
    48   13   48 1
    49   14   49 1
    50   14   50 1
    51   14   51 1
    52   16   52 1
    53   16   53 1
    54   19   54 1
    55   20   55 1
    56   24   56 1
    57   25   57 1
    58   26   58 1
    59   26   59 1
    60   26   60 1
    61   27   61 1
    62   27   62 1
    63   27   63 1
    64   28   64 1
    65   29   65 1
    66   30   66 1
    67   32   67 1
    68   32   68 1
    69   33   69 1
    70   33   70 1
    71   33   71 1
@<TRIPOS>SUBSTRUCTURE
     1 <0>         1 GROUP 0 A     ****
@<TRIPOS>MOLECULE
367
   51    54     1     0     0
SMALL
NO_CHARGES

@<TRIPOS>ATOM
      1 O1          6.6263    1.5550    0.0000 OH        1 <0>        0.00000
      2 O2          1.6500   -1.9996    0.0000 O         1 <0>        0.00000
      3 C1          6.0993    0.5186    0.0000 CT        1 <0>        0.00000
      4 C2          6.0993   -0.3064    0.0000 CT        1 <0>        0.00000
      5 C3          5.3849   -0.7189    0.0000 CT        1 <0>        0.00000
      6 C4          4.6703   -0.3064    0.0000 CT        1 <0>        0.00000
      7 C5          6.8799    0.7700    0.0000 CT        1 <0>        0.00000
      8 C6          5.3849    0.9311    0.0000 CT        1 <0>        0.00000
      9 C7          6.8799   -0.5579    0.0000 CT        1 <0>        0.00000
     10 C8          4.6703    0.5186    0.0000 CT        1 <0>        0.00000
     11 C9          3.9196   -0.7246    0.0000 CT        1 <0>        0.00000
     12 C10         7.3614    0.1061    0.0000 CT        1 <0>        0.00000
     13 C11         5.3981   -1.5782    0.0000 CT        1 <0>        0.00000
     14 C12         6.0993    1.3436    0.0000 CT        1 <0>        0.00000
     15 C13         4.6572   -2.0136    0.0000 CT        1 <0>        0.00000
     16 C14         3.9130   -1.5839    0.0000 CM        1 <0>        0.00000
     17 C15         3.1550   -0.2592    0.0000 CT        1 <0>        0.00000
     18 C16         5.3849    1.7561    0.0000 CT        1 <0>        0.00000
     19 C17         7.5482    1.2538    0.0000 C2        1 <0>        0.00000
     20 C18         2.3729   -0.6948    0.0000 CT        1 <0>        0.00000
     21 C19         3.1413   -2.0374    0.0000 CM        1 <0>        0.00000
     22 C20         2.3660   -1.5899    0.0000 C         1 <0>        0.00000
     23 C21         8.2165    1.7375    0.0000 C2        1 <0>        0.00000
     24 H1          6.1691   -0.9628    0.0000 HC        1 <0>        0.00000
     25 H2          5.9589   -1.0445    0.0000 HC        1 <0>        0.00000
     26 H3          5.2420    0.0236    0.0000 HC        1 <0>        0.00000
     27 H4          3.9323   -0.0647    0.0000 HC        1 <0>        0.00000
     28 H5          6.6263    1.5550    0.0000 HO        1 <0>        0.00000
     29 H6          5.3849    0.9311    0.0000 HC        1 <0>        0.00000
     30 H7          5.3849    0.9311    0.0000 HC        1 <0>        0.00000
     31 H8          6.8799   -0.5579    0.0000 HC        1 <0>        0.00000
     32 H9          6.8799   -0.5579    0.0000 HC        1 <0>        0.00000
     33 H10         4.6703    0.5186    0.0000 HC        1 <0>        0.00000
     34 H11         4.6703    0.5186    0.0000 HC        1 <0>        0.00000
     35 H12         7.3614    0.1061    0.0000 HC        1 <0>        0.00000
     36 H13         7.3614    0.1061    0.0000 HC        1 <0>        0.00000
     37 H14         5.3981   -1.5782    0.0000 HC        1 <0>        0.00000
     38 H15         5.3981   -1.5782    0.0000 HC        1 <0>        0.00000
     39 H16         6.0993    1.3436    0.0000 HC        1 <0>        0.00000
     40 H17         6.0993    1.3436    0.0000 HC        1 <0>        0.00000
     41 H18         4.6572   -2.0136    0.0000 HC        1 <0>        0.00000
     42 H19         4.6572   -2.0136    0.0000 HC        1 <0>        0.00000
     43 H20         3.1550   -0.2592    0.0000 HC        1 <0>        0.00000
     44 H21         3.1550   -0.2592    0.0000 HC        1 <0>        0.00000
     45 H22         5.3849    1.7561    0.0000 HC        1 <0>        0.00000
     46 H23         5.3849    1.7561    0.0000 HC        1 <0>        0.00000
     47 H24         5.3849    1.7561    0.0000 HC        1 <0>        0.00000
     48 H25         2.3729   -0.6948    0.0000 HC        1 <0>        0.00000
     49 H26         2.3729   -0.6948    0.0000 HC        1 <0>        0.00000
     50 H27         3.1413   -2.0374    0.0000 HA        1 <0>        0.00000
     51 H28         8.2165    1.7375    0.0000 HC        1 <0>        0.00000
@<TRIPOS>BOND
     1    1    7 1
     2    2   22 2
     3    3    4 1
     4    3    7 1
     5    3    8 1
     6    3   14 1
     7    4    5 1
     8    4    9 1
     9    4   24 1
    10    5    6 1
    11    5   13 1
    12    5   25 1
    13    6   10 1
    14    6   11 1
    15    6   26 1
    16    7   12 1
    17    7   19 1
    18    8   10 1
    19    9   12 1
    20   11   16 1
    21   11   17 1
    22   11   27 1
    23   13   15 1
    24   14   18 1
    25   15   16 1
    26   16   21 2
    27   17   20 1
    28   19   23 3
    29   20   22 1
    30   21   22 1
    31    1   28 1
    32    8   29 1
    33    8   30 1
    34    9   31 1
    35    9   32 1
    36   10   33 1
    37   10   34 1
    38   12   35 1
    39   12   36 1
    40   13   37 1
    41   13   38 1
    42   14   39 1
    43   14   40 1
    44   15   41 1
    45   15   42 1
    46   17   43 1
    47   17   44 1
    48   18   45 1
    49   18   46 1
    50   18   47 1
    51   20   48 1
    52   20   49 1
    53   21   50 1
    54   23   51 1
@<TRIPOS>SUBSTRUCTURE
     1 <0>         1 GROUP 0 A     ****
@<TRIPOS>MOLECULE
PGX
   58    59     1     0     0
SMALL
NO_CHARGES

@<TRIPOS>ATOM
      1 C1          1.0661   -4.1518    0.0000 C         1 <0>        0.00000
      2 C2          0.7985   -3.3714    0.0000 CT        1 <0>        0.00000
      3 C3         -0.0112   -3.2130    0.0000 CT        1 <0>        0.00000
      4 C4         -0.2788   -2.4326    0.0000 CT        1 <0>        0.00000
      5 C5          0.2632   -1.8106    0.0000 CM        1 <0>        0.00000
      6 C6         -0.0044   -1.0302    0.0000 CM        1 <0>        0.00000
      7 C7         -0.8141   -0.8718    0.0000 CT        1 <0>        0.00000
      8 C8         -1.0817   -0.0914    0.0000 CT        1 <0>        0.00000
      9 C9         -1.8122    0.2789    0.0000 CT        1 <0>        0.00000
     10 C10        -1.7421    1.8147    0.0000 CT        1 <0>        0.00000
     11 C11        -1.5821    0.9993    0.0000 CT        1 <0>        0.00000
     12 C12        -0.7866    0.5340    0.0000 CT        1 <0>        0.00000
     13 C13         0.0015    0.7780    0.0000 CM        1 <0>        0.00000
     14 C14         0.6069    0.2176    0.0000 CM        1 <0>        0.00000
     15 C15         1.3950    0.4616    0.0000 CT        1 <0>        0.00000
     16 C16         1.5776    1.2662    0.0000 CT        1 <0>        0.00000
     17 C17         0.9722    1.8266    0.0000 CT        1 <0>        0.00000
     18 C18         1.1549    2.6311    0.0000 CT        1 <0>        0.00000
     19 C19         0.5495    3.1916    0.0000 CT        1 <0>        0.00000
     20 C20         0.7322    3.9961    0.0000 CT        1 <0>        0.00000
     21 O1          1.8757   -4.3102    0.0000 O         1 <0>        0.00000
     22 O2          0.5241   -4.7737    0.0000 OH        1 <0>        0.00000
     23 O3         -2.5877   -0.1114    0.0000 OS        1 <0>        0.00000
     24 O4         -2.2224    0.5491    0.0000 OS        1 <0>        0.00000
     25 O5          2.0004   -0.0988    0.0000 OS        1 <0>        0.00000
     26 O6          1.8177   -0.9033    0.0000 OH        1 <0>        0.00000
     27 H1         -1.5222   -0.4747    0.0000 HC        1 <0>        0.00000
     28 H2         -1.8130   -0.3051    0.0000 H1        1 <0>        0.00000
     29 H3         -1.4055    1.5559    0.0000 H1        1 <0>        0.00000
     30 H4         -0.4037    0.0931    0.0000 HC        1 <0>        0.00000
     31 H5          0.9665    0.8583    0.0000 H1        1 <0>        0.00000
     32 H6          0.7985   -3.3714    0.0000 HC        1 <0>        0.00000
     33 H7          0.7985   -3.3714    0.0000 HC        1 <0>        0.00000
     34 H8         -0.0112   -3.2130    0.0000 HC        1 <0>        0.00000
     35 H9         -0.0112   -3.2130    0.0000 HC        1 <0>        0.00000
     36 H10        -0.2788   -2.4326    0.0000 HC        1 <0>        0.00000
     37 H11        -0.2788   -2.4326    0.0000 HC        1 <0>        0.00000
     38 H12         0.2632   -1.8106    0.0000 HA        1 <0>        0.00000
     39 H13        -0.0044   -1.0302    0.0000 HA        1 <0>        0.00000
     40 H14        -0.8141   -0.8718    0.0000 HC        1 <0>        0.00000
     41 H15        -0.8141   -0.8718    0.0000 HC        1 <0>        0.00000
     42 H16        -1.7421    1.8147    0.0000 HC        1 <0>        0.00000
     43 H17        -1.7421    1.8147    0.0000 HC        1 <0>        0.00000
     44 H18         0.0015    0.7780    0.0000 HA        1 <0>        0.00000
     45 H19         0.6069    0.2176    0.0000 HA        1 <0>        0.00000
     46 H20         1.5776    1.2662    0.0000 HC        1 <0>        0.00000
     47 H21         1.5776    1.2662    0.0000 HC        1 <0>        0.00000
     48 H22         0.9722    1.8266    0.0000 HC        1 <0>        0.00000
     49 H23         0.9722    1.8266    0.0000 HC        1 <0>        0.00000
     50 H24         1.1549    2.6311    0.0000 HC        1 <0>        0.00000
     51 H25         1.1549    2.6311    0.0000 HC        1 <0>        0.00000
     52 H26         0.5495    3.1916    0.0000 HC        1 <0>        0.00000
     53 H27         0.5495    3.1916    0.0000 HC        1 <0>        0.00000
     54 H28         0.7322    3.9961    0.0000 HC        1 <0>        0.00000
     55 H29         0.7322    3.9961    0.0000 HC        1 <0>        0.00000
     56 H30         0.7322    3.9961    0.0000 HC        1 <0>        0.00000
     57 H31         0.5241   -4.7737    0.0000 HO        1 <0>        0.00000
     58 H32         1.8177   -0.9033    0.0000 HO        1 <0>        0.00000
@<TRIPOS>BOND
     1    1    2 1
     2    1   21 2
     3    1   22 1
     4    2    3 1
     5    3    4 1
     6    4    5 1
     7    5    6 2
     8    6    7 1
     9    7    8 1
    10    8    9 1
    11    8   12 1
    12    8   27 1
    13    9   10 1
    14    9   23 1
    15    9   28 1
    16   10   11 1
    17   11   12 1
    18   11   24 1
    19   11   29 1
    20   12   13 1
    21   12   30 1
    22   13   14 2
    23   14   15 1
    24   15   16 1
    25   15   25 1
    26   15   31 1
    27   16   17 1
    28   17   18 1
    29   18   19 1
    30   19   20 1
    31   23   24 1
    32   25   26 1
    33    2   32 1
    34    2   33 1
    35    3   34 1
    36    3   35 1
    37    4   36 1
    38    4   37 1
    39    5   38 1
    40    6   39 1
    41    7   40 1
    42    7   41 1
    43   10   42 1
    44   10   43 1
    45   13   44 1
    46   14   45 1
    47   16   46 1
    48   16   47 1
    49   17   48 1
    50   17   49 1
    51   18   50 1
    52   18   51 1
    53   19   52 1
    54   19   53 1
    55   20   54 1
    56   20   55 1
    57   20   56 1
    58   22   57 1
    59   26   58 1
@<TRIPOS>SUBSTRUCTURE
     1 <0>         1 GROUP 0 A     ****
@<TRIPOS>MOLECULE
CP8
   46    49     1     0     0
SMALL
NO_CHARGES

@<TRIPOS>ATOM
      1 C1         -1.8244   -1.8572    0.0000 CA        1 <0>        0.00000
      2 C2         -1.8244   -1.0322    0.0000 CA        1 <0>        0.00000
      3 N1         -2.6090   -2.1122    0.0000 N3        1 <0>        0.00000
      4 C3         -1.1099   -2.2697    0.0000 CA        1 <0>        0.00000
      5 C4         -1.1099   -0.6197    0.0000 CA        1 <0>        0.00000
      6 C5         -2.6090   -0.7773    0.0000 CT        1 <0>        0.00000
      7 S1         -3.0940   -1.4447    0.0000 SO        1 <0>        0.00000
      8 C6         -2.8640   -2.8968    0.0000 CT        1 <0>        0.00000
      9 C7         -0.3955   -1.8572    0.0000 CA        1 <0>        0.00000
     10 C8         -0.3955   -1.0322    0.0000 CA        1 <0>        0.00000
     11 O1         -3.8127   -1.8497    0.0000 O2        1 <0>        0.00000
     12 O2         -3.8127   -1.0398    0.0000 O2        1 <0>        0.00000
     13 C9          0.3190   -0.6197    0.0000 CT        1 <0>        0.00000
     14 C10         0.3190    0.2053    0.0000 CT        1 <0>        0.00000
     15 O3          1.0335   -1.0322    0.0000 OS        1 <0>        0.00000
     16 N2          1.0335    0.6178    0.0000 N         1 <0>        0.00000
     17 C11         1.7479   -0.6197    0.0000 CT        1 <0>        0.00000
     18 C12         1.0335    1.4428    0.0000 CT        1 <0>        0.00000
     19 C13         1.7479    0.2053    0.0000 C         1 <0>        0.00000
     20 C14         1.7479    1.8553    0.0000 CA        1 <0>        0.00000
     21 O4          2.4624    0.6178    0.0000 O         1 <0>        0.00000
     22 C15         1.7479    2.6803    0.0000 CA        1 <0>        0.00000
     23 C16         2.4624    1.4428    0.0000 CA        1 <0>        0.00000
     24 C17         2.4624    3.0928    0.0000 CA        1 <0>        0.00000
     25 C18         3.1769    1.8553    0.0000 CA        1 <0>        0.00000
     26 C19         3.1769    2.6803    0.0000 CA        1 <0>        0.00000
     27 H1         -0.1867   -0.3278    0.0000 H1        1 <0>        0.00000
     28 H2         -1.1099   -2.2697    0.0000 HA        1 <0>        0.00000
     29 H3         -1.1099   -0.6197    0.0000 HA        1 <0>        0.00000
     30 H4         -2.6090   -0.7773    0.0000 H1        1 <0>        0.00000
     31 H5         -2.6090   -0.7773    0.0000 H1        1 <0>        0.00000
     32 H6         -2.8640   -2.8968    0.0000 H1        1 <0>        0.00000
     33 H7         -2.8640   -2.8968    0.0000 H1        1 <0>        0.00000
     34 H8         -2.8640   -2.8968    0.0000 H1        1 <0>        0.00000
     35 H9         -0.3955   -1.8572    0.0000 HA        1 <0>        0.00000
     36 H10         0.3190    0.2053    0.0000 H1        1 <0>        0.00000
     37 H11         0.3190    0.2053    0.0000 H1        1 <0>        0.00000
     38 H12         1.7479   -0.6197    0.0000 H1        1 <0>        0.00000
     39 H13         1.7479   -0.6197    0.0000 H1        1 <0>        0.00000
     40 H14         1.0335    1.4428    0.0000 H1        1 <0>        0.00000
     41 H15         1.0335    1.4428    0.0000 H1        1 <0>        0.00000
     42 H16         1.7479    2.6803    0.0000 HA        1 <0>        0.00000
     43 H17         2.4624    1.4428    0.0000 HA        1 <0>        0.00000
     44 H18         2.4624    3.0928    0.0000 HA        1 <0>        0.00000
     45 H19         3.1769    1.8553    0.0000 HA        1 <0>        0.00000
     46 H20         3.1769    2.6803    0.0000 HA        1 <0>        0.00000
@<TRIPOS>BOND
     1    1    2 ar
     2    1    3 1
     3    1    4 ar
     4    2    5 ar
     5    2    6 1
     6    3    7 1
     7    3    8 1
     8    4    9 ar
     9    5   10 ar
    10    6    7 1
    11    7   11 2
    12    7   12 2
    13    9   10 ar
    14   10   13 1
    15   13   14 1
    16   13   15 1
    17   13   27 1
    18   14   16 1
    19   15   17 1
    20   16   18 1
    21   16   19 am
    22   17   19 1
    23   18   20 1
    24   19   21 2
    25   20   22 ar
    26   20   23 ar
    27   22   24 ar
    28   23   25 ar
    29   24   26 ar
    30   25   26 ar
    31    4   28 1
    32    5   29 1
    33    6   30 1
    34    6   31 1
    35    8   32 1
    36    8   33 1
    37    8   34 1
    38    9   35 1
    39   14   36 1
    40   14   37 1
    41   17   38 1
    42   17   39 1
    43   18   40 1
    44   18   41 1
    45   22   42 1
    46   23   43 1
    47   24   44 1
    48   25   45 1
    49   26   46 1
@<TRIPOS>SUBSTRUCTURE
     1 <0>         1 GROUP 0 A     ****
@<TRIPOS>MOLECULE
MiniDrugBank_124
   45    46     1     0     0
SMALL
NO_CHARGES

@<TRIPOS>ATOM
      1 C1          8.2105  -13.1304    0.0000 CR        1 <0>        0.00000
      2 C2          9.0591  -13.1304    0.0000 CR        1 <0>        0.00000
      3 N1          7.9748  -13.9318    0.0000 NB        1 <0>        0.00000
      4 N2          9.2948  -13.9083    0.0000 NB        1 <0>        0.00000
      5 S1          8.6348  -14.4033    0.0000 S         1 <0>        0.00000
      6 N3          7.7391  -12.4940    0.0000 N3        1 <0>        0.00000
      7 O1          9.5070  -12.4233    0.0000 OS        1 <0>        0.00000
      8 N4         11.9348  -11.0090    0.0000 N3        1 <0>        0.00000
      9 O2          6.9141  -11.0797    0.0000 OS        1 <0>        0.00000
     10 C3         10.7091  -11.7397    0.0000 CT        1 <0>        0.00000
     11 C4         10.3320  -12.4233    0.0000 CT        1 <0>        0.00000
     12 C5         11.5341  -11.7397    0.0000 CT        1 <0>        0.00000
     13 C6          6.9141  -12.4940    0.0000 CT        1 <0>        0.00000
     14 C7          8.1398  -11.7633    0.0000 CT        1 <0>        0.00000
     15 O3         10.3320  -11.0090    0.0000 OH        1 <0>        0.00000
     16 C8          7.7391  -11.0797    0.0000 CT        1 <0>        0.00000
     17 C9          6.5134  -11.7868    0.0000 CT        1 <0>        0.00000
     18 C10        12.7626  -11.0133    0.0000 CT        1 <0>        0.00000
     19 C11        13.1788  -10.3009    0.0000 CT        1 <0>        0.00000
     20 C12        13.1715  -11.7298    0.0000 CT        1 <0>        0.00000
     21 C13        13.5876  -11.0133    0.0000 CT        1 <0>        0.00000
     22 H1         11.9348  -11.0090    0.0000 H         1 <0>        0.00000
     23 H2         10.7091  -11.7397    0.0000 H1        1 <0>        0.00000
     24 H3         10.3320  -12.4233    0.0000 H1        1 <0>        0.00000
     25 H4         10.3320  -12.4233    0.0000 H1        1 <0>        0.00000
     26 H5         11.5341  -11.7397    0.0000 H1        1 <0>        0.00000
     27 H6         11.5341  -11.7397    0.0000 H1        1 <0>        0.00000
     28 H7          6.9141  -12.4940    0.0000 H1        1 <0>        0.00000
     29 H8          6.9141  -12.4940    0.0000 H1        1 <0>        0.00000
     30 H9          8.1398  -11.7633    0.0000 H1        1 <0>        0.00000
     31 H10         8.1398  -11.7633    0.0000 H1        1 <0>        0.00000
     32 H11        10.3320  -11.0090    0.0000 HO        1 <0>        0.00000
     33 H12         7.7391  -11.0797    0.0000 H1        1 <0>        0.00000
     34 H13         7.7391  -11.0797    0.0000 H1        1 <0>        0.00000
     35 H14         6.5134  -11.7868    0.0000 H1        1 <0>        0.00000
     36 H15         6.5134  -11.7868    0.0000 H1        1 <0>        0.00000
     37 H16        13.1788  -10.3009    0.0000 HC        1 <0>        0.00000
     38 H17        13.1788  -10.3009    0.0000 HC        1 <0>        0.00000
     39 H18        13.1788  -10.3009    0.0000 HC        1 <0>        0.00000
     40 H19        13.1715  -11.7298    0.0000 HC        1 <0>        0.00000
     41 H20        13.1715  -11.7298    0.0000 HC        1 <0>        0.00000
     42 H21        13.1715  -11.7298    0.0000 HC        1 <0>        0.00000
     43 H22        13.5876  -11.0133    0.0000 HC        1 <0>        0.00000
     44 H23        13.5876  -11.0133    0.0000 HC        1 <0>        0.00000
     45 H24        13.5876  -11.0133    0.0000 HC        1 <0>        0.00000
@<TRIPOS>BOND
     1    1    2 1
     2    1    3 2
     3    1    6 1
     4    2    4 2
     5    2    7 1
     6    3    5 1
     7    4    5 1
     8    6   13 1
     9    6   14 1
    10    7   11 1
    11    8   12 1
    12    9   16 1
    13    9   17 1
    14   10   11 1
    15   10   12 1
    16   10   15 1
    17   13   17 1
    18   14   16 1
    19    8   18 1
    20   18   19 1
    21   18   20 1
    22   18   21 1
    23    8   22 1
    24   10   23 1
    25   11   24 1
    26   11   25 1
    27   12   26 1
    28   12   27 1
    29   13   28 1
    30   13   29 1
    31   14   30 1
    32   14   31 1
    33   15   32 1
    34   16   33 1
    35   16   34 1
    36   17   35 1
    37   17   36 1
    38   19   37 1
    39   19   38 1
    40   19   39 1
    41   20   40 1
    42   20   41 1
    43   20   42 1
    44   21   43 1
    45   21   44 1
    46   21   45 1
@<TRIPOS>SUBSTRUCTURE
     1 <0>         1 GROUP 0 A     ****
@<TRIPOS>MOLECULE
SG2
   23    24     1     0     0
SMALL
NO_CHARGES

@<TRIPOS>ATOM
      1 S1          1.7711    0.8782    0.0000 SO        1 <0>        0.00000
      2 C1          1.0566    0.4657    0.0000 CA        1 <0>        0.00000
      3 C2          1.0566   -0.3593    0.0000 CA        1 <0>        0.00000
      4 C3          0.3421   -0.7718    0.0000 CA        1 <0>        0.00000
      5 C4         -0.3723   -0.3593    0.0000 CB        1 <0>        0.00000
      6 N1         -1.1569   -0.6142    0.0000 N*        1 <0>        0.00000
      7 C5         -1.4119   -1.3988    0.0000 CT        1 <0>        0.00000
      8 S2         -1.6419    0.0532    0.0000 S         1 <0>        0.00000
      9 C6         -1.1569    0.7207    0.0000 C         1 <0>        0.00000
     10 O1         -1.4119    1.5053    0.0000 O         1 <0>        0.00000
     11 C7         -0.3723    0.4657    0.0000 CB        1 <0>        0.00000
     12 C8          0.3421    0.8782    0.0000 CA        1 <0>        0.00000
     13 N2          2.4856    1.2907    0.0000 N3        1 <0>        0.00000
     14 O2          2.1836    0.1638    0.0000 O2        1 <0>        0.00000
     15 O3          1.3586    1.5927    0.0000 O2        1 <0>        0.00000
     16 H1          1.0566   -0.3593    0.0000 HA        1 <0>        0.00000
     17 H2          0.3421   -0.7718    0.0000 HA        1 <0>        0.00000
     18 H3         -1.4119   -1.3988    0.0000 H1        1 <0>        0.00000
     19 H4         -1.4119   -1.3988    0.0000 H1        1 <0>        0.00000
     20 H5         -1.4119   -1.3988    0.0000 H1        1 <0>        0.00000
     21 H6          0.3421    0.8782    0.0000 HA        1 <0>        0.00000
     22 H7          2.4856    1.2907    0.0000 H         1 <0>        0.00000
     23 H8          2.4856    1.2907    0.0000 H         1 <0>        0.00000
@<TRIPOS>BOND
     1    1    2 1
     2    1   13 1
     3    1   14 2
     4    1   15 2
     5    2    3 ar
     6    2   12 ar
     7    3    4 ar
     8    4    5 ar
     9    5    6 1
    10    5   11 ar
    11    6    7 1
    12    6    8 1
    13    8    9 1
    14    9   10 2
    15    9   11 1
    16   11   12 ar
    17    3   16 1
    18    4   17 1
    19    7   18 1
    20    7   19 1
    21    7   20 1
    22   12   21 1
    23   13   22 1
    24   13   23 1
@<TRIPOS>SUBSTRUCTURE
     1 <0>         1 GROUP 0 A     ****
@<TRIPOS>MOLECULE
918
   48    50     1     0     0
SMALL
NO_CHARGES

@<TRIPOS>ATOM
      1 S1          3.6703   -0.5207    0.0000 SO        1 <0>        0.00000
      2 O1          4.0828   -1.2351    0.0000 O2        1 <0>        0.00000
      3 O2          3.2577    0.1938    0.0000 O2        1 <0>        0.00000
      4 N1          2.9558   -0.9332    0.0000 N3        1 <0>        0.00000
      5 N2          7.3088   -1.5972    0.0000 NA        1 <0>        0.00000
      6 N3          8.6288    1.4693    0.0000 N3        1 <0>        0.00000
      7 C1          2.8695   -1.7537    0.0000 CT        1 <0>        0.00000
      8 C2          2.2021   -0.5976    0.0000 CT        1 <0>        0.00000
      9 C3          2.0625   -1.9253    0.0000 CT        1 <0>        0.00000
     10 C4          1.6500   -1.2107    0.0000 CT        1 <0>        0.00000
     11 C5          4.3847   -0.1082    0.0000 CT        1 <0>        0.00000
     12 C6          5.0993   -0.5207    0.0000 CA        1 <0>        0.00000
     13 C7          6.5282   -0.5207    0.0000 CB        1 <0>        0.00000
     14 C8          5.8137   -0.1082    0.0000 CA        1 <0>        0.00000
     15 C9          7.3088   -0.2693    0.0000 CC        1 <0>        0.00000
     16 C10         6.5282   -1.3457    0.0000 CB        1 <0>        0.00000
     17 C11         5.0993   -1.3457    0.0000 CA        1 <0>        0.00000
     18 C12         7.5652    0.5149    0.0000 CT        1 <0>        0.00000
     19 C13         5.8137   -1.7582    0.0000 CA        1 <0>        0.00000
     20 C14         7.7903   -0.9332    0.0000 CW        1 <0>        0.00000
     21 C15         8.3724    0.6851    0.0000 CT        1 <0>        0.00000
     22 C16         8.0778    2.0833    0.0000 CT        1 <0>        0.00000
     23 C17         9.4361    1.6394    0.0000 CT        1 <0>        0.00000
     24 H1          7.3088   -1.5972    0.0000 H         1 <0>        0.00000
     25 H2          2.8695   -1.7537    0.0000 H1        1 <0>        0.00000
     26 H3          2.8695   -1.7537    0.0000 H1        1 <0>        0.00000
     27 H4          2.2021   -0.5976    0.0000 H1        1 <0>        0.00000
     28 H5          2.2021   -0.5976    0.0000 H1        1 <0>        0.00000
     29 H6          2.0625   -1.9253    0.0000 HC        1 <0>        0.00000
     30 H7          2.0625   -1.9253    0.0000 HC        1 <0>        0.00000
     31 H8          1.6500   -1.2107    0.0000 HC        1 <0>        0.00000
     32 H9          1.6500   -1.2107    0.0000 HC        1 <0>        0.00000
     33 H10         4.3847   -0.1082    0.0000 H1        1 <0>        0.00000
     34 H11         4.3847   -0.1082    0.0000 H1        1 <0>        0.00000
     35 H12         5.8137   -0.1082    0.0000 HA        1 <0>        0.00000
     36 H13         5.0993   -1.3457    0.0000 HA        1 <0>        0.00000
     37 H14         7.5652    0.5149    0.0000 HC        1 <0>        0.00000
     38 H15         7.5652    0.5149    0.0000 HC        1 <0>        0.00000
     39 H16         5.8137   -1.7582    0.0000 HA        1 <0>        0.00000
     40 H17         7.7903   -0.9332    0.0000 H4        1 <0>        0.00000
     41 H18         8.3724    0.6851    0.0000 H1        1 <0>        0.00000
     42 H19         8.3724    0.6851    0.0000 H1        1 <0>        0.00000
     43 H20         8.0778    2.0833    0.0000 H1        1 <0>        0.00000
     44 H21         8.0778    2.0833    0.0000 H1        1 <0>        0.00000
     45 H22         8.0778    2.0833    0.0000 H1        1 <0>        0.00000
     46 H23         9.4361    1.6394    0.0000 H1        1 <0>        0.00000
     47 H24         9.4361    1.6394    0.0000 H1        1 <0>        0.00000
     48 H25         9.4361    1.6394    0.0000 H1        1 <0>        0.00000
@<TRIPOS>BOND
     1    1    2 2
     2    1    3 2
     3    1    4 1
     4    1   11 1
     5    4    7 1
     6    4    8 1
     7    5   16 1
     8    5   20 1
     9    6   21 1
    10    6   22 1
    11    6   23 1
    12    7    9 1
    13    8   10 1
    14    9   10 1
    15   11   12 1
    16   12   14 ar
    17   12   17 ar
    18   13   14 ar
    19   13   15 1
    20   13   16 ar
    21   15   18 1
    22   15   20 2
    23   16   19 ar
    24   17   19 ar
    25   18   21 1
    26    5   24 1
    27    7   25 1
    28    7   26 1
    29    8   27 1
    30    8   28 1
    31    9   29 1
    32    9   30 1
    33   10   31 1
    34   10   32 1
    35   11   33 1
    36   11   34 1
    37   14   35 1
    38   17   36 1
    39   18   37 1
    40   18   38 1
    41   19   39 1
    42   20   40 1
    43   21   41 1
    44   21   42 1
    45   22   43 1
    46   22   44 1
    47   22   45 1
    48   23   46 1
    49   23   47 1
    50   23   48 1
@<TRIPOS>SUBSTRUCTURE
     1 <0>         1 GROUP 0 A     ****
@<TRIPOS>MOLECULE
736
   61    65     1     0     0
SMALL
NO_CHARGES

@<TRIPOS>ATOM
      1 C1          2.3772    0.2788    0.0000 CA        1 <0>        0.00000
      2 N1          1.5888    0.5220    0.0000 NC        1 <0>        0.00000
      3 C2          0.9841   -0.0391    0.0000 CA        1 <0>        0.00000
      4 C3          1.1676   -0.8435    0.0000 CA        1 <0>        0.00000
      5 C4          1.9560   -1.0866    0.0000 CA        1 <0>        0.00000
      6 C5          2.5608   -0.5255    0.0000 CA        1 <0>        0.00000
      7 C6          0.2408    0.3188    0.0000 CT        1 <0>        0.00000
      8 C7         -0.5025   -0.0391    0.0000 CA        1 <0>        0.00000
      9 C8         -0.6861   -0.8435    0.0000 CA        1 <0>        0.00000
     10 C9         -0.1717   -1.4885    0.0000 CM        1 <0>        0.00000
     11 C10         0.6533   -1.4885    0.0000 CM        1 <0>        0.00000
     12 C11        -1.1073    0.5220    0.0000 CA        1 <0>        0.00000
     13 C12        -1.8956    0.2788    0.0000 CA        1 <0>        0.00000
     14 C13        -2.0792   -0.5255    0.0000 CA        1 <0>        0.00000
     15 C14        -1.4745   -1.0866    0.0000 CA        1 <0>        0.00000
     16 C15         0.2408    1.1438    0.0000 CT        1 <0>        0.00000
     17 C16        -0.4737    1.5563    0.0000 CT        1 <0>        0.00000
     18 C17        -0.4737    2.3813    0.0000 CT        1 <0>        0.00000
     19 N2          0.2408    2.7938    0.0000 N3        1 <0>        0.00000
     20 C18         0.9552    2.3813    0.0000 CT        1 <0>        0.00000
     21 C19         0.9552    1.5563    0.0000 CT        1 <0>        0.00000
     22 Cl1        -2.8676   -0.7687    0.0000 CL        1 <0>        0.00000
     23 S1          0.2408    3.6188    0.0000 SO        1 <0>        0.00000
     24 N3         -0.5297   -2.2318    0.0000 N3        1 <0>        0.00000
     25 C20        -0.0649   -2.9134    0.0000 CT        1 <0>        0.00000
     26 C21        -1.3524   -2.2934    0.0000 CT        1 <0>        0.00000
     27 C22        -0.4229   -3.6567    0.0000 CT        1 <0>        0.00000
     28 C23        -1.7103   -3.0367    0.0000 CT        1 <0>        0.00000
     29 N4         -1.2456   -3.7184    0.0000 N3        1 <0>        0.00000
     30 O1          0.2408    4.4438    0.0000 O2        1 <0>        0.00000
     31 C24         1.0658    3.6188    0.0000 CT        1 <0>        0.00000
     32 O2         -0.5842    3.6188    0.0000 O2        1 <0>        0.00000
     33 H1          0.7352    0.6295    0.0000 HC        1 <0>        0.00000
     34 H2          2.3772    0.2788    0.0000 H4        1 <0>        0.00000
     35 H3          1.9560   -1.0866    0.0000 HA        1 <0>        0.00000
     36 H4          2.5608   -0.5255    0.0000 HA        1 <0>        0.00000
     37 H5          0.6533   -1.4885    0.0000 HA        1 <0>        0.00000
     38 H6         -1.1073    0.5220    0.0000 HA        1 <0>        0.00000
     39 H7         -1.8956    0.2788    0.0000 HA        1 <0>        0.00000
     40 H8         -1.4745   -1.0866    0.0000 HA        1 <0>        0.00000
     41 H9          0.2408    1.1438    0.0000 HC        1 <0>        0.00000
     42 H10        -0.4737    1.5563    0.0000 HC        1 <0>        0.00000
     43 H11        -0.4737    1.5563    0.0000 HC        1 <0>        0.00000
     44 H12        -0.4737    2.3813    0.0000 H1        1 <0>        0.00000
     45 H13        -0.4737    2.3813    0.0000 H1        1 <0>        0.00000
     46 H14         0.9552    2.3813    0.0000 H1        1 <0>        0.00000
     47 H15         0.9552    2.3813    0.0000 H1        1 <0>        0.00000
     48 H16         0.9552    1.5563    0.0000 HC        1 <0>        0.00000
     49 H17         0.9552    1.5563    0.0000 HC        1 <0>        0.00000
     50 H18        -0.0649   -2.9134    0.0000 H1        1 <0>        0.00000
     51 H19        -0.0649   -2.9134    0.0000 H1        1 <0>        0.00000
     52 H20        -1.3524   -2.2934    0.0000 H1        1 <0>        0.00000
     53 H21        -1.3524   -2.2934    0.0000 H1        1 <0>        0.00000
     54 H22        -0.4229   -3.6567    0.0000 H1        1 <0>        0.00000
     55 H23        -0.4229   -3.6567    0.0000 H1        1 <0>        0.00000
     56 H24        -1.7103   -3.0367    0.0000 H1        1 <0>        0.00000
     57 H25        -1.7103   -3.0367    0.0000 H1        1 <0>        0.00000
     58 H26        -1.2456   -3.7184    0.0000 H         1 <0>        0.00000
     59 H27         1.0658    3.6188    0.0000 H1        1 <0>        0.00000
     60 H28         1.0658    3.6188    0.0000 H1        1 <0>        0.00000
     61 H29         1.0658    3.6188    0.0000 H1        1 <0>        0.00000
@<TRIPOS>BOND
     1    1    2 ar
     2    1    6 ar
     3    2    3 ar
     4    3    4 ar
     5    3    7 1
     6    4    5 ar
     7    4   11 1
     8    5    6 ar
     9    7    8 1
    10    7   16 1
    11    7   33 1
    12    8    9 ar
    13    8   12 ar
    14    9   10 1
    15    9   15 ar
    16   10   11 2
    17   10   24 1
    18   12   13 ar
    19   13   14 ar
    20   14   15 ar
    21   14   22 1
    22   16   17 1
    23   16   21 1
    24   17   18 1
    25   18   19 1
    26   19   20 1
    27   19   23 1
    28   20   21 1
    29   23   30 2
    30   23   31 1
    31   23   32 2
    32   24   25 1
    33   24   26 1
    34   25   27 1
    35   26   28 1
    36   27   29 1
    37   28   29 1
    38    1   34 1
    39    5   35 1
    40    6   36 1
    41   11   37 1
    42   12   38 1
    43   13   39 1
    44   15   40 1
    45   16   41 1
    46   17   42 1
    47   17   43 1
    48   18   44 1
    49   18   45 1
    50   20   46 1
    51   20   47 1
    52   21   48 1
    53   21   49 1
    54   25   50 1
    55   25   51 1
    56   26   52 1
    57   26   53 1
    58   27   54 1
    59   27   55 1
    60   28   56 1
    61   28   57 1
    62   29   58 1
    63   31   59 1
    64   31   60 1
    65   31   61 1
@<TRIPOS>SUBSTRUCTURE
     1 <0>         1 GROUP 0 A     ****
@<TRIPOS>MOLECULE
MiniDrugBank_128
   66    70     1     0     0
SMALL
NO_CHARGES

@<TRIPOS>ATOM
      1 N1         -5.8078   -3.0058    0.0000 N2        1 <0>        0.00000
      2 C1         -5.4722   -3.7595    0.0000 CA        1 <0>        0.00000
      3 N2         -4.6518   -3.8457    0.0000 NC        1 <0>        0.00000
      4 C2         -4.3162   -4.5994    0.0000 C         1 <0>        0.00000
      5 O1         -3.4957   -4.6856    0.0000 O         1 <0>        0.00000
      6 N3         -4.8011   -5.2668    0.0000 N         1 <0>        0.00000
      7 C3         -5.6216   -5.1806    0.0000 CA        1 <0>        0.00000
      8 C4         -5.9572   -4.4269    0.0000 CA        1 <0>        0.00000
      9 C5         -4.4656   -6.0205    0.0000 CT        1 <0>        0.00000
     10 O2         -3.6586   -6.1920    0.0000 OS        1 <0>        0.00000
     11 C6         -3.5724   -7.0125    0.0000 CT        1 <0>        0.00000
     12 C7         -2.8579   -7.4250    0.0000 CT        1 <0>        0.00000
     13 O3         -2.1434   -7.0125    0.0000 OS        1 <0>        0.00000
     14 P1         -1.4289   -7.4250    0.0000 P         1 <0>        0.00000
     15 O4         -1.8414   -8.1395    0.0000 OH        1 <0>        0.00000
     16 O5         -1.0164   -6.7105    0.0000 O         1 <0>        0.00000
     17 O6         -0.7145   -7.8375    0.0000 OS        1 <0>        0.00000
     18 P2          0.0000   -7.4250    0.0000 P         1 <0>        0.00000
     19 O7          0.4125   -8.1395    0.0000 OH        1 <0>        0.00000
     20 O8         -0.4125   -6.7105    0.0000 O         1 <0>        0.00000
     21 O9          0.7145   -7.0125    0.0000 OS        1 <0>        0.00000
     22 C8          1.4289   -7.4250    0.0000 CT        1 <0>        0.00000
     23 C9          2.1434   -7.0125    0.0000 CT        1 <0>        0.00000
     24 O10         2.8579   -7.4250    0.0000 OS        1 <0>        0.00000
     25 C10         3.5724   -7.0125    0.0000 CA        1 <0>        0.00000
     26 N4          4.2868   -7.4250    0.0000 NC        1 <0>        0.00000
     27 C11         5.0013   -7.0125    0.0000 CB        1 <0>        0.00000
     28 C12         5.0013   -6.1875    0.0000 CB        1 <0>        0.00000
     29 N5          4.2868   -5.7750    0.0000 NC        1 <0>        0.00000
     30 C13         3.5724   -6.1875    0.0000 CA        1 <0>        0.00000
     31 C14         2.8579   -5.7750    0.0000 CM        1 <0>        0.00000
     32 S1          2.8579   -4.9500    0.0000 SH        1 <0>        0.00000
     33 C15         2.1434   -6.1875    0.0000 CM        1 <0>        0.00000
     34 S2          1.4289   -5.7750    0.0000 SH        1 <0>        0.00000
     35 C16         5.7158   -5.7750    0.0000 CA        1 <0>        0.00000
     36 O11         5.7158   -4.9500    0.0000 OH        1 <0>        0.00000
     37 N6          6.4302   -6.1875    0.0000 NC        1 <0>        0.00000
     38 C17         6.4302   -7.0125    0.0000 CA        1 <0>        0.00000
     39 N7          7.1447   -7.4250    0.0000 N2        1 <0>        0.00000
     40 N8          5.7158   -7.4250    0.0000 NC        1 <0>        0.00000
     41 C18        -4.3260   -7.3481    0.0000 CT        1 <0>        0.00000
     42 O12        -4.4976   -8.1550    0.0000 OH        1 <0>        0.00000
     43 C19        -4.8781   -6.7350    0.0000 CT        1 <0>        0.00000
     44 O13        -5.6985   -6.8212    0.0000 OH        1 <0>        0.00000
     45 H1         -5.8078   -3.0058    0.0000 H         1 <0>        0.00000
     46 H2         -5.8078   -3.0058    0.0000 H         1 <0>        0.00000
     47 H3         -5.6216   -5.1806    0.0000 H4        1 <0>        0.00000
     48 H4         -5.9572   -4.4269    0.0000 HA        1 <0>        0.00000
     49 H5         -4.4656   -6.0205    0.0000 H2        1 <0>        0.00000
     50 H6         -3.5724   -7.0125    0.0000 H1        1 <0>        0.00000
     51 H7         -2.8579   -7.4250    0.0000 H1        1 <0>        0.00000
     52 H8         -2.8579   -7.4250    0.0000 H1        1 <0>        0.00000
     53 H9         -1.8414   -8.1395    0.0000 HO        1 <0>        0.00000
     54 H10         0.4125   -8.1395    0.0000 HO        1 <0>        0.00000
     55 H11         1.4289   -7.4250    0.0000 H1        1 <0>        0.00000
     56 H12         1.4289   -7.4250    0.0000 H1        1 <0>        0.00000
     57 H13         2.1434   -7.0125    0.0000 H1        1 <0>        0.00000
     58 H14         2.8579   -4.9500    0.0000 HS        1 <0>        0.00000
     59 H15         1.4289   -5.7750    0.0000 HS        1 <0>        0.00000
     60 H16         5.7158   -4.9500    0.0000 HO        1 <0>        0.00000
     61 H17         7.1447   -7.4250    0.0000 H         1 <0>        0.00000
     62 H18         7.1447   -7.4250    0.0000 H         1 <0>        0.00000
     63 H19        -4.3260   -7.3481    0.0000 H1        1 <0>        0.00000
     64 H20        -4.4976   -8.1550    0.0000 HO        1 <0>        0.00000
     65 H21        -4.8781   -6.7350    0.0000 H1        1 <0>        0.00000
     66 H22        -5.6985   -6.8212    0.0000 HO        1 <0>        0.00000
@<TRIPOS>BOND
     1    1    2 1
     2    2    3 2
     3    3    4 1
     4    4    5 2
     5    4    6 am
     6    6    7 1
     7    7    8 2
     8    2    8 1
     9    6    9 1
    10    9   10 1
    11   10   11 1
    12   11   12 1
    13   12   13 1
    14   13   14 1
    15   14   15 1
    16   14   16 2
    17   14   17 1
    18   17   18 1
    19   18   19 1
    20   18   20 2
    21   18   21 1
    22   21   22 1
    23   22   23 1
    24   23   24 1
    25   24   25 1
    26   25   26 ar
    27   26   27 ar
    28   27   28 ar
    29   28   29 ar
    30   29   30 ar
    31   25   30 ar
    32   30   31 1
    33   31   32 1
    34   31   33 2
    35   23   33 1
    36   33   34 1
    37   28   35 ar
    38   35   36 1
    39   35   37 ar
    40   37   38 ar
    41   38   39 1
    42   38   40 ar
    43   27   40 ar
    44   11   41 1
    45   41   42 1
    46   41   43 1
    47    9   43 1
    48   43   44 1
    49    1   45 1
    50    1   46 1
    51    7   47 1
    52    8   48 1
    53    9   49 1
    54   11   50 1
    55   12   51 1
    56   12   52 1
    57   15   53 1
    58   19   54 1
    59   22   55 1
    60   22   56 1
    61   23   57 1
    62   32   58 1
    63   34   59 1
    64   36   60 1
    65   39   61 1
    66   39   62 1
    67   41   63 1
    68   42   64 1
    69   43   65 1
    70   44   66 1
@<TRIPOS>SUBSTRUCTURE
     1 <0>         1 GROUP 0 A     ****
@<TRIPOS>MOLECULE
MiniDrugBank_129
   75    75     1     0     0
SMALL
NO_CHARGES

@<TRIPOS>ATOM
      1 C1          0.6774    2.4083    0.0000 CT        1 <0>        0.00000
      2 C2          0.0941    1.8250    0.0000 CT        1 <0>        0.00000
      3 O1         -0.7028    2.0385    0.0000 OS        1 <0>        0.00000
      4 P1         -1.2862    1.4551    0.0000 P         1 <0>        0.00000
      5 O2         -1.8696    2.0385    0.0000 O         1 <0>        0.00000
      6 O3         -0.7028    0.8718    0.0000 OS        1 <0>        0.00000
      7 C3          0.0941    1.0853    0.0000 CT        1 <0>        0.00000
      8 C4          0.6774    0.5019    0.0000 CT        1 <0>        0.00000
      9 C5         -1.8696    0.8718    0.0000 CM        1 <0>        0.00000
     10 C6         -2.6664    1.0853    0.0000 CM        1 <0>        0.00000
     11 C7         -2.8800    1.8822    0.0000 CA        1 <0>        0.00000
     12 C8         -3.6769    2.0957    0.0000 CA        1 <0>        0.00000
     13 C9         -3.8904    2.8926    0.0000 CA        1 <0>        0.00000
     14 C10        -3.3070    3.4760    0.0000 CA        1 <0>        0.00000
     15 O4         -3.5205    4.2729    0.0000 OH        1 <0>        0.00000
     16 C11        -2.5101    3.2624    0.0000 CA        1 <0>        0.00000
     17 C12        -2.2966    2.4656    0.0000 CA        1 <0>        0.00000
     18 C13        -1.9268    3.8458    0.0000 CT        1 <0>        0.00000
     19 C14        -1.3434    4.4292    0.0000 CT        1 <0>        0.00000
     20 C15        -1.3434    3.2624    0.0000 CT        1 <0>        0.00000
     21 C16        -2.5101    4.4292    0.0000 CT        1 <0>        0.00000
     22 C17        -4.6873    3.1061    0.0000 CT        1 <0>        0.00000
     23 C18        -5.4842    3.3197    0.0000 CT        1 <0>        0.00000
     24 C19        -4.4737    3.9030    0.0000 CT        1 <0>        0.00000
     25 C20        -4.9008    2.3092    0.0000 CT        1 <0>        0.00000
     26 P2         -1.6560    0.0749    0.0000 P         1 <0>        0.00000
     27 O5         -0.8591    0.2884    0.0000 O         1 <0>        0.00000
     28 O6         -2.4529   -0.1386    0.0000 OS        1 <0>        0.00000
     29 C21        -2.6664   -0.9355    0.0000 CT        1 <0>        0.00000
     30 C22        -3.4633   -1.1491    0.0000 CT        1 <0>        0.00000
     31 O7         -1.4425   -0.7220    0.0000 OS        1 <0>        0.00000
     32 C23        -0.6456   -0.9355    0.0000 CT        1 <0>        0.00000
     33 C24        -0.0622   -0.3522    0.0000 CT        1 <0>        0.00000
     34 H1          0.6774    2.4083    0.0000 HC        1 <0>        0.00000
     35 H2          0.6774    2.4083    0.0000 HC        1 <0>        0.00000
     36 H3          0.6774    2.4083    0.0000 HC        1 <0>        0.00000
     37 H4          0.0941    1.8250    0.0000 H1        1 <0>        0.00000
     38 H5          0.0941    1.8250    0.0000 H1        1 <0>        0.00000
     39 H6          0.0941    1.0853    0.0000 H1        1 <0>        0.00000
     40 H7          0.0941    1.0853    0.0000 H1        1 <0>        0.00000
     41 H8          0.6774    0.5019    0.0000 HC        1 <0>        0.00000
     42 H9          0.6774    0.5019    0.0000 HC        1 <0>        0.00000
     43 H10         0.6774    0.5019    0.0000 HC        1 <0>        0.00000
     44 H11        -2.6664    1.0853    0.0000 HA        1 <0>        0.00000
     45 H12        -3.6769    2.0957    0.0000 HA        1 <0>        0.00000
     46 H13        -3.5205    4.2729    0.0000 HO        1 <0>        0.00000
     47 H14        -2.2966    2.4656    0.0000 HA        1 <0>        0.00000
     48 H15        -1.3434    4.4292    0.0000 HC        1 <0>        0.00000
     49 H16        -1.3434    4.4292    0.0000 HC        1 <0>        0.00000
     50 H17        -1.3434    4.4292    0.0000 HC        1 <0>        0.00000
     51 H18        -1.3434    3.2624    0.0000 HC        1 <0>        0.00000
     52 H19        -1.3434    3.2624    0.0000 HC        1 <0>        0.00000
     53 H20        -1.3434    3.2624    0.0000 HC        1 <0>        0.00000
     54 H21        -2.5101    4.4292    0.0000 HC        1 <0>        0.00000
     55 H22        -2.5101    4.4292    0.0000 HC        1 <0>        0.00000
     56 H23        -2.5101    4.4292    0.0000 HC        1 <0>        0.00000
     57 H24        -5.4842    3.3197    0.0000 HC        1 <0>        0.00000
     58 H25        -5.4842    3.3197    0.0000 HC        1 <0>        0.00000
     59 H26        -5.4842    3.3197    0.0000 HC        1 <0>        0.00000
     60 H27        -4.4737    3.9030    0.0000 HC        1 <0>        0.00000
     61 H28        -4.4737    3.9030    0.0000 HC        1 <0>        0.00000
     62 H29        -4.4737    3.9030    0.0000 HC        1 <0>        0.00000
     63 H30        -4.9008    2.3092    0.0000 HC        1 <0>        0.00000
     64 H31        -4.9008    2.3092    0.0000 HC        1 <0>        0.00000
     65 H32        -4.9008    2.3092    0.0000 HC        1 <0>        0.00000
     66 H33        -2.6664   -0.9355    0.0000 H1        1 <0>        0.00000
     67 H34        -2.6664   -0.9355    0.0000 H1        1 <0>        0.00000
     68 H35        -3.4633   -1.1491    0.0000 HC        1 <0>        0.00000
     69 H36        -3.4633   -1.1491    0.0000 HC        1 <0>        0.00000
     70 H37        -3.4633   -1.1491    0.0000 HC        1 <0>        0.00000
     71 H38        -0.6456   -0.9355    0.0000 H1        1 <0>        0.00000
     72 H39        -0.6456   -0.9355    0.0000 H1        1 <0>        0.00000
     73 H40        -0.0622   -0.3522    0.0000 HC        1 <0>        0.00000
     74 H41        -0.0622   -0.3522    0.0000 HC        1 <0>        0.00000
     75 H42        -0.0622   -0.3522    0.0000 HC        1 <0>        0.00000
@<TRIPOS>BOND
     1    1    2 1
     2    2    3 1
     3    3    4 1
     4    4    5 2
     5    4    6 1
     6    6    7 1
     7    7    8 1
     8    4    9 1
     9    9   10 2
    10   10   11 1
    11   11   12 ar
    12   12   13 ar
    13   13   14 ar
    14   14   15 1
    15   14   16 ar
    16   16   17 ar
    17   11   17 ar
    18   16   18 1
    19   18   19 1
    20   18   20 1
    21   18   21 1
    22   13   22 1
    23   22   23 1
    24   22   24 1
    25   22   25 1
    26    9   26 1
    27   26   27 2
    28   26   28 1
    29   28   29 1
    30   29   30 1
    31   26   31 1
    32   31   32 1
    33   32   33 1
    34    1   34 1
    35    1   35 1
    36    1   36 1
    37    2   37 1
    38    2   38 1
    39    7   39 1
    40    7   40 1
    41    8   41 1
    42    8   42 1
    43    8   43 1
    44   10   44 1
    45   12   45 1
    46   15   46 1
    47   17   47 1
    48   19   48 1
    49   19   49 1
    50   19   50 1
    51   20   51 1
    52   20   52 1
    53   20   53 1
    54   21   54 1
    55   21   55 1
    56   21   56 1
    57   23   57 1
    58   23   58 1
    59   23   59 1
    60   24   60 1
    61   24   61 1
    62   24   62 1
    63   25   63 1
    64   25   64 1
    65   25   65 1
    66   29   66 1
    67   29   67 1
    68   30   68 1
    69   30   69 1
    70   30   70 1
    71   32   71 1
    72   32   72 1
    73   33   73 1
    74   33   74 1
    75   33   75 1
@<TRIPOS>SUBSTRUCTURE
     1 <0>         1 GROUP 0 A     ****
@<TRIPOS>MOLECULE
MLG
   32    32     1     0     0
SMALL
NO_CHARGES

@<TRIPOS>ATOM
      1 C1         -1.9619   -0.9598    0.0000 CA        1 <0>        0.00000
      2 C2         -2.6763   -1.3723    0.0000 CA        1 <0>        0.00000
      3 C3         -3.3908   -0.9598    0.0000 CA        1 <0>        0.00000
      4 Cl1        -4.1053   -1.3723    0.0000 CL        1 <0>        0.00000
      5 C4         -3.3908   -0.1348    0.0000 CA        1 <0>        0.00000
      6 C5         -2.6763    0.2777    0.0000 CA        1 <0>        0.00000
      7 Cl2        -2.6763    1.1027    0.0000 CL        1 <0>        0.00000
      8 C6         -1.9619   -0.1348    0.0000 CA        1 <0>        0.00000
      9 O1         -1.2474    0.2777    0.0000 OS        1 <0>        0.00000
     10 C7          0.1816    0.2777    0.0000 CT        1 <0>        0.00000
     11 C8         -0.5329   -0.1348    0.0000 CT        1 <0>        0.00000
     12 C9          0.8960   -0.1348    0.0000 CT        1 <0>        0.00000
     13 N1          1.6105    0.2777    0.0000 N3        1 <0>        0.00000
     14 C10         1.6105    1.1027    0.0000 CT        1 <0>        0.00000
     15 C11         2.3250   -0.1348    0.0000 CT        1 <0>        0.00000
     16 C12         3.0394    0.2777    0.0000 C2        1 <0>        0.00000
     17 C13         3.7539    0.6902    0.0000 C2        1 <0>        0.00000
     18 H1         -1.9619   -0.9598    0.0000 HA        1 <0>        0.00000
     19 H2         -2.6763   -1.3723    0.0000 HA        1 <0>        0.00000
     20 H3         -3.3908   -0.1348    0.0000 HA        1 <0>        0.00000
     21 H4          0.1816    0.2777    0.0000 HC        1 <0>        0.00000
     22 H5          0.1816    0.2777    0.0000 HC        1 <0>        0.00000
     23 H6         -0.5329   -0.1348    0.0000 H1        1 <0>        0.00000
     24 H7         -0.5329   -0.1348    0.0000 H1        1 <0>        0.00000
     25 H8          0.8960   -0.1348    0.0000 H1        1 <0>        0.00000
     26 H9          0.8960   -0.1348    0.0000 H1        1 <0>        0.00000
     27 H10         1.6105    1.1027    0.0000 H1        1 <0>        0.00000
     28 H11         1.6105    1.1027    0.0000 H1        1 <0>        0.00000
     29 H12         1.6105    1.1027    0.0000 H1        1 <0>        0.00000
     30 H13         2.3250   -0.1348    0.0000 H1        1 <0>        0.00000
     31 H14         2.3250   -0.1348    0.0000 H1        1 <0>        0.00000
     32 H15         3.7539    0.6902    0.0000 HC        1 <0>        0.00000
@<TRIPOS>BOND
     1    1    2 ar
     2    1    8 ar
     3    2    3 ar
     4    3    4 1
     5    3    5 ar
     6    5    6 ar
     7    6    7 1
     8    6    8 ar
     9    8    9 1
    10    9   11 1
    11   10   11 1
    12   10   12 1
    13   12   13 1
    14   13   14 1
    15   13   15 1
    16   15   16 1
    17   16   17 3
    18    1   18 1
    19    2   19 1
    20    5   20 1
    21   10   21 1
    22   10   22 1
    23   11   23 1
    24   11   24 1
    25   12   25 1
    26   12   26 1
    27   14   27 1
    28   14   28 1
    29   14   29 1
    30   15   30 1
    31   15   31 1
    32   17   32 1
@<TRIPOS>SUBSTRUCTURE
     1 <0>         1 GROUP 0 A     ****
@<TRIPOS>MOLECULE
MiniDrugBank_131
   36    38     1     0     0
SMALL
NO_CHARGES

@<TRIPOS>ATOM
      1 O1          6.3709   -0.8559    0.0000 OH        1 <0>        0.00000
      2 O2          6.2603    0.3817    0.0000 O         1 <0>        0.00000
      3 O3          2.1506    0.9634    0.0000 OH        1 <0>        0.00000
      4 C1          4.8314   -1.2684    0.0000 CJ        1 <0>        0.00000
      5 C2          5.2439   -1.9829    0.0000 CJ        1 <0>        0.00000
      6 C3          4.4189   -1.9829    0.0000 CJ        1 <0>        0.00000
      7 C4          5.5459   -0.8559    0.0000 CT        1 <0>        0.00000
      8 C5          4.1168   -0.8559    0.0000 CM        1 <0>        0.00000
      9 C6          4.1168   -0.0309    0.0000 C*        1 <0>        0.00000
     10 C7          5.5459   -0.0309    0.0000 C         1 <0>        0.00000
     11 C8          5.9584   -1.5704    0.0000 CT        1 <0>        0.00000
     12 C9          4.8314    0.3817    0.0000 CW        1 <0>        0.00000
     13 C10         3.4024   -1.2684    0.0000 CT        1 <0>        0.00000
     14 C11         3.5088    0.5194    0.0000 CW        1 <0>        0.00000
     15 C12         4.6588    1.1834    0.0000 CC        1 <0>        0.00000
     16 C13         3.8430    1.2684    0.0000 CC        1 <0>        0.00000
     17 C14         2.7015    0.3493    0.0000 CT        1 <0>        0.00000
     18 C15         3.4305    1.9829    0.0000 CT        1 <0>        0.00000
     19 H1          6.3709   -0.8559    0.0000 HO        1 <0>        0.00000
     20 H2          2.1506    0.9634    0.0000 HO        1 <0>        0.00000
     21 H3          5.2439   -1.9829    0.0000 HC        1 <0>        0.00000
     22 H4          5.2439   -1.9829    0.0000 HC        1 <0>        0.00000
     23 H5          4.4189   -1.9829    0.0000 HC        1 <0>        0.00000
     24 H6          4.4189   -1.9829    0.0000 HC        1 <0>        0.00000
     25 H7          5.9584   -1.5704    0.0000 HC        1 <0>        0.00000
     26 H8          5.9584   -1.5704    0.0000 HC        1 <0>        0.00000
     27 H9          5.9584   -1.5704    0.0000 HC        1 <0>        0.00000
     28 H10         3.4024   -1.2684    0.0000 HC        1 <0>        0.00000
     29 H11         3.4024   -1.2684    0.0000 HC        1 <0>        0.00000
     30 H12         3.4024   -1.2684    0.0000 HC        1 <0>        0.00000
     31 H13         4.6588    1.1834    0.0000 HA        1 <0>        0.00000
     32 H14         2.7015    0.3493    0.0000 H1        1 <0>        0.00000
     33 H15         2.7015    0.3493    0.0000 H1        1 <0>        0.00000
     34 H16         3.4305    1.9829    0.0000 HC        1 <0>        0.00000
     35 H17         3.4305    1.9829    0.0000 HC        1 <0>        0.00000
     36 H18         3.4305    1.9829    0.0000 HC        1 <0>        0.00000
@<TRIPOS>BOND
     1    1    7 1
     2    2   10 2
     3    3   17 1
     4    4    5 1
     5    4    6 1
     6    4    7 1
     7    4    8 1
     8    5    6 1
     9    7   10 1
    10    7   11 1
    11    8    9 2
    12    8   13 1
    13    9   12 1
    14    9   14 1
    15   10   12 1
    16   12   15 2
    17   14   16 2
    18   14   17 1
    19   15   16 1
    20   16   18 1
    21    1   19 1
    22    3   20 1
    23    5   21 1
    24    5   22 1
    25    6   23 1
    26    6   24 1
    27   11   25 1
    28   11   26 1
    29   11   27 1
    30   13   28 1
    31   13   29 1
    32   13   30 1
    33   15   31 1
    34   17   32 1
    35   17   33 1
    36   18   34 1
    37   18   35 1
    38   18   36 1
@<TRIPOS>SUBSTRUCTURE
     1 <0>         1 GROUP 0 A     ****
@<TRIPOS>MOLECULE
MiniDrugBank_132
   26    25     1     0     0
SMALL
NO_CHARGES

@<TRIPOS>ATOM
      1 Br1         6.9534    2.1582    0.0000 BR        1 <0>        0.00000
      2 F1          4.8099    0.9207    0.0000 F         1 <0>        0.00000
      3 F2          5.6350   -0.5082    0.0000 F         1 <0>        0.00000
      4 F3          4.0955    0.5082    0.0000 F         1 <0>        0.00000
      5 F4          4.9205   -0.9207    0.0000 F         1 <0>        0.00000
      6 F5          6.3495   -0.0957    0.0000 F         1 <0>        0.00000
      7 F6          5.5245    1.3332    0.0000 F         1 <0>        0.00000
      8 F7          3.3810    0.0957    0.0000 F         1 <0>        0.00000
      9 F8          4.2060   -1.3332    0.0000 F         1 <0>        0.00000
     10 F9          6.2390    1.7457    0.0000 F         1 <0>        0.00000
     11 F10         7.0640    0.3168    0.0000 F         1 <0>        0.00000
     12 F11         3.4916   -1.7457    0.0000 F         1 <0>        0.00000
     13 F12         2.6665   -0.3168    0.0000 F         1 <0>        0.00000
     14 F13         8.0804    1.8563    0.0000 F         1 <0>        0.00000
     15 F14         7.7784    0.7293    0.0000 F         1 <0>        0.00000
     16 F15         1.6500   -1.8563    0.0000 F         1 <0>        0.00000
     17 F16         1.9520   -0.7293    0.0000 F         1 <0>        0.00000
     18 F17         2.7770   -2.1582    0.0000 F         1 <0>        0.00000
     19 C1          5.2224    0.2063    0.0000 CT        1 <0>        0.00000
     20 C2          4.5080   -0.2063    0.0000 CT        1 <0>        0.00000
     21 C3          5.9370    0.6188    0.0000 CT        1 <0>        0.00000
     22 C4          3.7935   -0.6188    0.0000 CT        1 <0>        0.00000
     23 C5          6.6515    1.0313    0.0000 CT        1 <0>        0.00000
     24 C6          3.0791   -1.0313    0.0000 CT        1 <0>        0.00000
     25 C7          7.3659    1.4438    0.0000 CT        1 <0>        0.00000
     26 C8          2.3645   -1.4438    0.0000 CT        1 <0>        0.00000
@<TRIPOS>BOND
     1    1   25 1
     2    2   19 1
     3    3   19 1
     4    4   20 1
     5    5   20 1
     6    6   21 1
     7    7   21 1
     8    8   22 1
     9    9   22 1
    10   10   23 1
    11   11   23 1
    12   12   24 1
    13   13   24 1
    14   14   25 1
    15   15   25 1
    16   16   26 1
    17   17   26 1
    18   18   26 1
    19   19   20 1
    20   19   21 1
    21   20   22 1
    22   21   23 1
    23   22   24 1
    24   23   25 1
    25   24   26 1
@<TRIPOS>SUBSTRUCTURE
     1 <0>         1 GROUP 0 A     ****
@<TRIPOS>MOLECULE
927
   35    35     1     0     0
SMALL
NO_CHARGES

@<TRIPOS>ATOM
      1 S1          6.3947   -0.0210    0.0000 S         1 <0>        0.00000
      2 S2          2.8147    0.3182    0.0000 SO        1 <0>        0.00000
      3 S3          8.8723    0.4664    0.0000 S         1 <0>        0.00000
      4 O1          3.0696   -0.4664    0.0000 O2        1 <0>        0.00000
      5 O2          2.5598    1.1028    0.0000 O2        1 <0>        0.00000
      6 N1          3.5993    0.5731    0.0000 NB        1 <0>        0.00000
      7 N2          8.4599   -0.8030    0.0000 NB        1 <0>        0.00000
      8 N3          4.0409   -0.7859    0.0000 N         1 <0>        0.00000
      9 N4          9.9119   -0.5731    0.0000 NB        1 <0>        0.00000
     10 N5          2.0301    0.0632    0.0000 N3        1 <0>        0.00000
     11 N6         11.3096   -0.2760    0.0000 N         1 <0>        0.00000
     12 N7         10.3534    0.7859    0.0000 N         1 <0>        0.00000
     13 C1          4.9970    0.2760    0.0000 CT        1 <0>        0.00000
     14 C2          5.6101   -0.2760    0.0000 CT        1 <0>        0.00000
     15 C3          7.0078   -0.5731    0.0000 CT        1 <0>        0.00000
     16 C4          4.2124    0.0210    0.0000 C         1 <0>        0.00000
     17 C5          7.7924   -0.3182    0.0000 CC        1 <0>        0.00000
     18 C6          8.0474    0.4664    0.0000 CW        1 <0>        0.00000
     19 C7          9.1273   -0.3182    0.0000 CR        1 <0>        0.00000
     20 C8         10.5250   -0.0210    0.0000 C         1 <0>        0.00000
     21 H1          4.0409   -0.7859    0.0000 H         1 <0>        0.00000
     22 H2          4.0409   -0.7859    0.0000 H         1 <0>        0.00000
     23 H3          2.0301    0.0632    0.0000 H         1 <0>        0.00000
     24 H4          2.0301    0.0632    0.0000 H         1 <0>        0.00000
     25 H5         11.3096   -0.2760    0.0000 H         1 <0>        0.00000
     26 H6         11.3096   -0.2760    0.0000 H         1 <0>        0.00000
     27 H7         10.3534    0.7859    0.0000 H         1 <0>        0.00000
     28 H8         10.3534    0.7859    0.0000 H         1 <0>        0.00000
     29 H9          4.9970    0.2760    0.0000 HC        1 <0>        0.00000
     30 H10         4.9970    0.2760    0.0000 HC        1 <0>        0.00000
     31 H11         5.6101   -0.2760    0.0000 H1        1 <0>        0.00000
     32 H12         5.6101   -0.2760    0.0000 H1        1 <0>        0.00000
     33 H13         7.0078   -0.5731    0.0000 H1        1 <0>        0.00000
     34 H14         7.0078   -0.5731    0.0000 H1        1 <0>        0.00000
     35 H15         8.0474    0.4664    0.0000 H4        1 <0>        0.00000
@<TRIPOS>BOND
     1    1   14 1
     2    1   15 1
     3    2    4 2
     4    2    5 2
     5    2    6 1
     6    2   10 1
     7    3   18 1
     8    3   19 1
     9    6   16 2
    10    7   17 1
    11    7   19 2
    12    8   16 1
    13    9   19 1
    14    9   20 2
    15   11   20 1
    16   12   20 1
    17   13   14 1
    18   13   16 1
    19   15   17 1
    20   17   18 2
    21    8   21 1
    22    8   22 1
    23   10   23 1
    24   10   24 1
    25   11   25 1
    26   11   26 1
    27   12   27 1
    28   12   28 1
    29   13   29 1
    30   13   30 1
    31   14   31 1
    32   14   32 1
    33   15   33 1
    34   15   34 1
    35   18   35 1
@<TRIPOS>SUBSTRUCTURE
     1 <0>         1 GROUP 0 A     ****
@<TRIPOS>MOLECULE
ATT
   37    38     1     0     0
SMALL
NO_CHARGES

@<TRIPOS>ATOM
      1 C1          0.1148   -0.5029    0.0000 CT        1 <0>        0.00000
      2 C2         -0.2977    0.2116    0.0000 C         1 <0>        0.00000
      3 C3         -1.5352    0.9261    0.0000 CT        1 <0>        0.00000
      4 C4         -2.3602   -1.9318    0.0000 CA        1 <0>        0.00000
      5 C5         -2.7727   -1.2173    0.0000 CA        1 <0>        0.00000
      6 C6         -2.3602   -0.5029    0.0000 CA        1 <0>        0.00000
      7 C7         -1.5352   -0.5029    0.0000 CA        1 <0>        0.00000
      8 C8          2.5898    0.9261    0.0000 CR        1 <0>        0.00000
      9 C9          3.5818    1.8193    0.0000 CR        1 <0>        0.00000
     10 N1          2.8674    2.2318    0.0000 NB        1 <0>        0.00000
     11 N2          2.2543    1.6797    0.0000 NB        1 <0>        0.00000
     12 S1          3.4103    1.0123    0.0000 S         1 <0>        0.00000
     13 S2          4.3355    2.1548    0.0000 SH        1 <0>        0.00000
     14 N3          2.1773    0.2116    0.0000 N         1 <0>        0.00000
     15 C10         1.3523    0.2116    0.0000 C         1 <0>        0.00000
     16 O1          0.9398    0.9261    0.0000 O         1 <0>        0.00000
     17 N4          0.9398   -0.5029    0.0000 N         1 <0>        0.00000
     18 O2          0.1148    0.9261    0.0000 O         1 <0>        0.00000
     19 N5         -1.1227    0.2116    0.0000 N         1 <0>        0.00000
     20 C11        -0.2977   -1.2173    0.0000 CT        1 <0>        0.00000
     21 C12        -1.1227   -1.2173    0.0000 CA        1 <0>        0.00000
     22 C13        -1.5352   -1.9318    0.0000 CA        1 <0>        0.00000
     23 H1          0.4068    0.0028    0.0000 H1        1 <0>        0.00000
     24 H2         -1.5352    0.9261    0.0000 H1        1 <0>        0.00000
     25 H3         -1.5352    0.9261    0.0000 H1        1 <0>        0.00000
     26 H4         -1.5352    0.9261    0.0000 H1        1 <0>        0.00000
     27 H5         -2.3602   -1.9318    0.0000 HA        1 <0>        0.00000
     28 H6         -2.7727   -1.2173    0.0000 HA        1 <0>        0.00000
     29 H7         -2.3602   -0.5029    0.0000 HA        1 <0>        0.00000
     30 H8         -1.5352   -0.5029    0.0000 HA        1 <0>        0.00000
     31 H9          4.3355    2.1548    0.0000 HS        1 <0>        0.00000
     32 H10         2.1773    0.2116    0.0000 H         1 <0>        0.00000
     33 H11         0.9398   -0.5029    0.0000 H         1 <0>        0.00000
     34 H12        -1.1227    0.2116    0.0000 H         1 <0>        0.00000
     35 H13        -0.2977   -1.2173    0.0000 HC        1 <0>        0.00000
     36 H14        -0.2977   -1.2173    0.0000 HC        1 <0>        0.00000
     37 H15        -1.5352   -1.9318    0.0000 HA        1 <0>        0.00000
@<TRIPOS>BOND
     1    1    2 1
     2    1   17 1
     3    1   20 1
     4    1   23 1
     5    2   18 2
     6    2   19 am
     7    3   19 1
     8    4    5 ar
     9    4   22 ar
    10    5    6 ar
    11    6    7 ar
    12    7   21 ar
    13    8   11 2
    14    8   12 1
    15    8   14 1
    16    9   10 2
    17    9   12 1
    18    9   13 1
    19   10   11 1
    20   14   15 am
    21   15   16 2
    22   15   17 am
    23   20   21 1
    24   21   22 ar
    25    3   24 1
    26    3   25 1
    27    3   26 1
    28    4   27 1
    29    5   28 1
    30    6   29 1
    31    7   30 1
    32   13   31 1
    33   14   32 1
    34   17   33 1
    35   19   34 1
    36   20   35 1
    37   20   36 1
    38   22   37 1
@<TRIPOS>SUBSTRUCTURE
     1 <0>         1 GROUP 0 A     ****
@<TRIPOS>MOLECULE
MiniDrugBank_135
   82    84     1     0     0
SMALL
NO_CHARGES

@<TRIPOS>ATOM
      1 N1         -8.9114   -3.6851    0.0000 NB        1 <0>        0.00000
      2 C1         -8.5969   -2.9224    0.0000 C         1 <0>        0.00000
      3 N2         -9.1001   -2.2687    0.0000 N         1 <0>        0.00000
      4 C2         -7.7791   -2.8135    0.0000 CA        1 <0>        0.00000
      5 C3         -7.4646   -2.0508    0.0000 CA        1 <0>        0.00000
      6 C4         -6.6468   -1.9418    0.0000 CA        1 <0>        0.00000
      7 C5         -6.1436   -2.5956    0.0000 CA        1 <0>        0.00000
      8 C6         -5.3258   -2.4866    0.0000 CT        1 <0>        0.00000
      9 N3         -5.0113   -1.7239    0.0000 N         1 <0>        0.00000
     10 C7         -4.1935   -1.6150    0.0000 C         1 <0>        0.00000
     11 O1         -3.6903   -2.2687    0.0000 O         1 <0>        0.00000
     12 C8         -3.8790   -0.8523    0.0000 CT        1 <0>        0.00000
     13 C9         -4.3822   -0.1985    0.0000 CT        1 <0>        0.00000
     14 C10        -5.2000   -0.3075    0.0000 CT        1 <0>        0.00000
     15 C11        -5.7032    0.3462    0.0000 C         1 <0>        0.00000
     16 N4         -6.5210    0.2373    0.0000 N         1 <0>        0.00000
     17 O2         -5.3887    1.1089    0.0000 O         1 <0>        0.00000
     18 N5         -3.0612   -0.7433    0.0000 N         1 <0>        0.00000
     19 C12        -2.7467    0.0194    0.0000 C         1 <0>        0.00000
     20 O3         -3.2499    0.6731    0.0000 O         1 <0>        0.00000
     21 C13        -1.9289    0.1283    0.0000 CT        1 <0>        0.00000
     22 C14        -1.6144    0.8910    0.0000 CT        1 <0>        0.00000
     23 C15        -0.7966    1.0000    0.0000 CC        1 <0>        0.00000
     24 C16        -0.2278    0.4024    0.0000 CW        1 <0>        0.00000
     25 N6          0.5163    0.7588    0.0000 NA        1 <0>        0.00000
     26 C17         0.4074    1.5765    0.0000 CB        1 <0>        0.00000
     27 C18        -0.4041    1.7256    0.0000 CB        1 <0>        0.00000
     28 C19        -0.6807    2.5029    0.0000 CA        1 <0>        0.00000
     29 C20        -0.1458    3.1310    0.0000 CA        1 <0>        0.00000
     30 O4         -0.4224    3.9083    0.0000 OS        1 <0>        0.00000
     31 C21        -1.2339    4.0574    0.0000 CT        1 <0>        0.00000
     32 C22        -1.5105    4.8346    0.0000 CT        1 <0>        0.00000
     33 C23        -0.9756    5.4628    0.0000 CT        1 <0>        0.00000
     34 C24         0.6656    2.9819    0.0000 CA        1 <0>        0.00000
     35 C25         0.9422    2.2047    0.0000 CA        1 <0>        0.00000
     36 N7         -1.4256   -0.5254    0.0000 N3        1 <0>        0.00000
     37 S1         -0.6079   -0.4164    0.0000 SO        1 <0>        0.00000
     38 O5         -0.7168    0.4013    0.0000 O2        1 <0>        0.00000
     39 O6         -0.4989   -1.2342    0.0000 O2        1 <0>        0.00000
     40 C26         0.2099   -0.3075    0.0000 CT        1 <0>        0.00000
     41 C27         0.7131   -0.9612    0.0000 CT        1 <0>        0.00000
     42 C28        -6.4581   -3.3583    0.0000 CA        1 <0>        0.00000
     43 C29        -7.2759   -3.4672    0.0000 CA        1 <0>        0.00000
     44 H1         -8.9114   -3.6851    0.0000 H         1 <0>        0.00000
     45 H2         -9.1001   -2.2687    0.0000 H         1 <0>        0.00000
     46 H3         -9.1001   -2.2687    0.0000 H         1 <0>        0.00000
     47 H4         -7.4646   -2.0508    0.0000 HA        1 <0>        0.00000
     48 H5         -6.6468   -1.9418    0.0000 HA        1 <0>        0.00000
     49 H6         -5.3258   -2.4866    0.0000 H1        1 <0>        0.00000
     50 H7         -5.3258   -2.4866    0.0000 H1        1 <0>        0.00000
     51 H8         -5.0113   -1.7239    0.0000 H         1 <0>        0.00000
     52 H9         -3.8790   -0.8523    0.0000 H1        1 <0>        0.00000
     53 H10        -4.3822   -0.1985    0.0000 HC        1 <0>        0.00000
     54 H11        -4.3822   -0.1985    0.0000 HC        1 <0>        0.00000
     55 H12        -5.2000   -0.3075    0.0000 HC        1 <0>        0.00000
     56 H13        -5.2000   -0.3075    0.0000 HC        1 <0>        0.00000
     57 H14        -6.5210    0.2373    0.0000 H         1 <0>        0.00000
     58 H15        -6.5210    0.2373    0.0000 H         1 <0>        0.00000
     59 H16        -3.0612   -0.7433    0.0000 H         1 <0>        0.00000
     60 H17        -1.9289    0.1283    0.0000 H1        1 <0>        0.00000
     61 H18        -1.6144    0.8910    0.0000 HC        1 <0>        0.00000
     62 H19        -1.6144    0.8910    0.0000 HC        1 <0>        0.00000
     63 H20        -0.2278    0.4024    0.0000 H4        1 <0>        0.00000
     64 H21         0.5163    0.7588    0.0000 H         1 <0>        0.00000
     65 H22        -0.6807    2.5029    0.0000 HA        1 <0>        0.00000
     66 H23        -1.2339    4.0574    0.0000 H1        1 <0>        0.00000
     67 H24        -1.2339    4.0574    0.0000 H1        1 <0>        0.00000
     68 H25        -1.5105    4.8346    0.0000 HC        1 <0>        0.00000
     69 H26        -1.5105    4.8346    0.0000 HC        1 <0>        0.00000
     70 H27        -0.9756    5.4628    0.0000 HC        1 <0>        0.00000
     71 H28        -0.9756    5.4628    0.0000 HC        1 <0>        0.00000
     72 H29        -0.9756    5.4628    0.0000 HC        1 <0>        0.00000
     73 H30         0.6656    2.9819    0.0000 HA        1 <0>        0.00000
     74 H31         0.9422    2.2047    0.0000 HA        1 <0>        0.00000
     75 H32        -1.4256   -0.5254    0.0000 H         1 <0>        0.00000
     76 H33         0.2099   -0.3075    0.0000 H1        1 <0>        0.00000
     77 H34         0.2099   -0.3075    0.0000 H1        1 <0>        0.00000
     78 H35         0.7131   -0.9612    0.0000 HC        1 <0>        0.00000
     79 H36         0.7131   -0.9612    0.0000 HC        1 <0>        0.00000
     80 H37         0.7131   -0.9612    0.0000 HC        1 <0>        0.00000
     81 H38        -6.4581   -3.3583    0.0000 HA        1 <0>        0.00000
     82 H39        -7.2759   -3.4672    0.0000 HA        1 <0>        0.00000
@<TRIPOS>BOND
     1    1    2 2
     2    2    3 1
     3    2    4 1
     4    4    5 ar
     5    5    6 ar
     6    6    7 ar
     7    7    8 1
     8    8    9 1
     9    9   10 am
    10   10   11 2
    11   10   12 1
    12   12   13 1
    13   13   14 1
    14   14   15 1
    15   15   16 am
    16   15   17 2
    17   12   18 1
    18   18   19 am
    19   19   20 2
    20   19   21 1
    21   21   22 1
    22   22   23 1
    23   23   24 2
    24   24   25 1
    25   25   26 1
    26   26   27 ar
    27   23   27 1
    28   27   28 ar
    29   28   29 ar
    30   29   30 1
    31   30   31 1
    32   31   32 1
    33   32   33 1
    34   29   34 ar
    35   34   35 ar
    36   26   35 ar
    37   21   36 1
    38   36   37 1
    39   37   38 2
    40   37   39 2
    41   37   40 1
    42   40   41 1
    43    7   42 ar
    44   42   43 ar
    45    4   43 ar
    46    1   44 1
    47    3   45 1
    48    3   46 1
    49    5   47 1
    50    6   48 1
    51    8   49 1
    52    8   50 1
    53    9   51 1
    54   12   52 1
    55   13   53 1
    56   13   54 1
    57   14   55 1
    58   14   56 1
    59   16   57 1
    60   16   58 1
    61   18   59 1
    62   21   60 1
    63   22   61 1
    64   22   62 1
    65   24   63 1
    66   25   64 1
    67   28   65 1
    68   31   66 1
    69   31   67 1
    70   32   68 1
    71   32   69 1
    72   33   70 1
    73   33   71 1
    74   33   72 1
    75   34   73 1
    76   35   74 1
    77   36   75 1
    78   40   76 1
    79   40   77 1
    80   41   78 1
    81   41   79 1
    82   41   80 1
    83   42   81 1
    84   43   82 1
@<TRIPOS>SUBSTRUCTURE
     1 <0>         1 GROUP 0 A     ****
@<TRIPOS>MOLECULE
MiniDrugBank_136
   66    69     1     0     0
SMALL
NO_CHARGES

@<TRIPOS>ATOM
      1 N1          4.1960   -5.8286    0.0000 N         1 <0>        0.00000
      2 C1          3.3890   -6.0001    0.0000 C         1 <0>        0.00000
      3 N2          2.8370   -5.3870    0.0000 N3        1 <0>        0.00000
      4 C2          2.0300   -5.5585    0.0000 CT        1 <0>        0.00000
      5 C3          1.4780   -4.9454    0.0000 CT        1 <0>        0.00000
      6 C4          1.7329   -4.1608    0.0000 CT        1 <0>        0.00000
      7 C5          2.5399   -3.9893    0.0000 CT        1 <0>        0.00000
      8 C6          3.0919   -4.6024    0.0000 CT        1 <0>        0.00000
      9 C7          1.1809   -3.5477    0.0000 CT        1 <0>        0.00000
     10 N3          1.4358   -2.7631    0.0000 N         1 <0>        0.00000
     11 C8          0.8838   -2.1500    0.0000 C         1 <0>        0.00000
     12 O1          0.0768   -2.3215    0.0000 O         1 <0>        0.00000
     13 C9          1.1387   -1.3654    0.0000 CT        1 <0>        0.00000
     14 C10         0.6538   -0.6979    0.0000 CT        1 <0>        0.00000
     15 C11         1.1387   -0.0305    0.0000 CT        1 <0>        0.00000
     16 C12         1.9233   -0.2854    0.0000 CT        1 <0>        0.00000
     17 C13         2.6378    0.1271    0.0000 CT        1 <0>        0.00000
     18 N4          3.3523   -0.2854    0.0000 N3        1 <0>        0.00000
     19 C14         3.3523   -1.1104    0.0000 CT        1 <0>        0.00000
     20 C15         2.6378   -1.5229    0.0000 C         1 <0>        0.00000
     21 O2          2.6378   -2.3479    0.0000 O         1 <0>        0.00000
     22 N5          1.9233   -1.1104    0.0000 N         1 <0>        0.00000
     23 S1          4.0668    0.1271    0.0000 SO        1 <0>        0.00000
     24 O3          3.6543    0.8415    0.0000 O2        1 <0>        0.00000
     25 O4          4.4793   -0.5874    0.0000 O2        1 <0>        0.00000
     26 C16         4.7812    0.5396    0.0000 CT        1 <0>        0.00000
     27 C17         5.4957    0.1271    0.0000 CA        1 <0>        0.00000
     28 C18         6.2102    0.5396    0.0000 CA        1 <0>        0.00000
     29 C19         6.9246    0.1271    0.0000 CA        1 <0>        0.00000
     30 C20         6.9246   -0.6979    0.0000 CA        1 <0>        0.00000
     31 C21         6.2102   -1.1104    0.0000 CA        1 <0>        0.00000
     32 C22         5.4957   -0.6979    0.0000 CA        1 <0>        0.00000
     33 N6          3.1341   -6.7847    0.0000 NB        1 <0>        0.00000
     34 O5          3.6861   -7.3978    0.0000 OH        1 <0>        0.00000
     35 H1          4.1960   -5.8286    0.0000 H         1 <0>        0.00000
     36 H2          4.1960   -5.8286    0.0000 H         1 <0>        0.00000
     37 H3          2.0300   -5.5585    0.0000 H1        1 <0>        0.00000
     38 H4          2.0300   -5.5585    0.0000 H1        1 <0>        0.00000
     39 H5          1.4780   -4.9454    0.0000 HC        1 <0>        0.00000
     40 H6          1.4780   -4.9454    0.0000 HC        1 <0>        0.00000
     41 H7          1.7329   -4.1608    0.0000 HC        1 <0>        0.00000
     42 H8          2.5399   -3.9893    0.0000 HC        1 <0>        0.00000
     43 H9          2.5399   -3.9893    0.0000 HC        1 <0>        0.00000
     44 H10         3.0919   -4.6024    0.0000 H1        1 <0>        0.00000
     45 H11         3.0919   -4.6024    0.0000 H1        1 <0>        0.00000
     46 H12         1.1809   -3.5477    0.0000 H1        1 <0>        0.00000
     47 H13         1.1809   -3.5477    0.0000 H1        1 <0>        0.00000
     48 H14         1.4358   -2.7631    0.0000 H         1 <0>        0.00000
     49 H15         1.1387   -1.3654    0.0000 H1        1 <0>        0.00000
     50 H16         0.6538   -0.6979    0.0000 HC        1 <0>        0.00000
     51 H17         0.6538   -0.6979    0.0000 HC        1 <0>        0.00000
     52 H18         1.1387   -0.0305    0.0000 HC        1 <0>        0.00000
     53 H19         1.1387   -0.0305    0.0000 HC        1 <0>        0.00000
     54 H20         1.9233   -0.2854    0.0000 H1        1 <0>        0.00000
     55 H21         2.6378    0.1271    0.0000 H1        1 <0>        0.00000
     56 H22         2.6378    0.1271    0.0000 H1        1 <0>        0.00000
     57 H23         3.3523   -1.1104    0.0000 H1        1 <0>        0.00000
     58 H24         3.3523   -1.1104    0.0000 H1        1 <0>        0.00000
     59 H25         4.7812    0.5396    0.0000 H1        1 <0>        0.00000
     60 H26         4.7812    0.5396    0.0000 H1        1 <0>        0.00000
     61 H27         6.2102    0.5396    0.0000 HA        1 <0>        0.00000
     62 H28         6.9246    0.1271    0.0000 HA        1 <0>        0.00000
     63 H29         6.9246   -0.6979    0.0000 HA        1 <0>        0.00000
     64 H30         6.2102   -1.1104    0.0000 HA        1 <0>        0.00000
     65 H31         5.4957   -0.6979    0.0000 HA        1 <0>        0.00000
     66 H32         3.6861   -7.3978    0.0000 HO        1 <0>        0.00000
@<TRIPOS>BOND
     1    1    2 1
     2    2    3 1
     3    3    4 1
     4    4    5 1
     5    5    6 1
     6    6    7 1
     7    7    8 1
     8    3    8 1
     9    6    9 1
    10    9   10 1
    11   10   11 am
    12   11   12 2
    13   11   13 1
    14   13   14 1
    15   14   15 1
    16   15   16 1
    17   16   17 1
    18   17   18 1
    19   18   19 1
    20   19   20 1
    21   20   21 2
    22   20   22 am
    23   13   22 1
    24   16   22 1
    25   18   23 1
    26   23   24 2
    27   23   25 2
    28   23   26 1
    29   26   27 1
    30   27   28 ar
    31   28   29 ar
    32   29   30 ar
    33   30   31 ar
    34   31   32 ar
    35   27   32 ar
    36    2   33 2
    37   33   34 1
    38    1   35 1
    39    1   36 1
    40    4   37 1
    41    4   38 1
    42    5   39 1
    43    5   40 1
    44    6   41 1
    45    7   42 1
    46    7   43 1
    47    8   44 1
    48    8   45 1
    49    9   46 1
    50    9   47 1
    51   10   48 1
    52   13   49 1
    53   14   50 1
    54   14   51 1
    55   15   52 1
    56   15   53 1
    57   16   54 1
    58   17   55 1
    59   17   56 1
    60   19   57 1
    61   19   58 1
    62   26   59 1
    63   26   60 1
    64   28   61 1
    65   29   62 1
    66   30   63 1
    67   31   64 1
    68   32   65 1
    69   34   66 1
@<TRIPOS>SUBSTRUCTURE
     1 <0>         1 GROUP 0 A     ****
@<TRIPOS>MOLECULE
MiniDrugBank_137
   31    30     1     0     0
SMALL
NO_CHARGES

@<TRIPOS>ATOM
      1 Cl1         4.5080    2.2688    0.0000 CL        1 <0>        0.00000
      2 S1          4.5080   -0.2063    0.0000 SO        1 <0>        0.00000
      3 S2          2.3645    0.2063    0.0000 SO        1 <0>        0.00000
      4 O1          4.9205    0.5082    0.0000 O2        1 <0>        0.00000
      5 O2          4.0955   -0.9207    0.0000 O2        1 <0>        0.00000
      6 O3          1.9520   -0.5082    0.0000 O2        1 <0>        0.00000
      7 O4          2.7770    0.9207    0.0000 O2        1 <0>        0.00000
      8 O5          3.7935   -1.4438    0.0000 O         1 <0>        0.00000
      9 N1          3.7935    0.2063    0.0000 N3        1 <0>        0.00000
     10 N2          3.0791   -0.2063    0.0000 N         1 <0>        0.00000
     11 N3          2.3645   -1.4438    0.0000 N         1 <0>        0.00000
     12 C1          3.7935    1.0313    0.0000 CT        1 <0>        0.00000
     13 C2          5.2224   -0.6188    0.0000 CT        1 <0>        0.00000
     14 C3          4.5080    1.4438    0.0000 CT        1 <0>        0.00000
     15 C4          3.0791   -1.0313    0.0000 C         1 <0>        0.00000
     16 C5          1.6500    0.6188    0.0000 CT        1 <0>        0.00000
     17 C6          2.3645   -2.2688    0.0000 CT        1 <0>        0.00000
     18 H1          2.3645   -1.4438    0.0000 H         1 <0>        0.00000
     19 H2          3.7935    1.0313    0.0000 H1        1 <0>        0.00000
     20 H3          3.7935    1.0313    0.0000 H1        1 <0>        0.00000
     21 H4          5.2224   -0.6188    0.0000 H1        1 <0>        0.00000
     22 H5          5.2224   -0.6188    0.0000 H1        1 <0>        0.00000
     23 H6          5.2224   -0.6188    0.0000 H1        1 <0>        0.00000
     24 H7          4.5080    1.4438    0.0000 H1        1 <0>        0.00000
     25 H8          4.5080    1.4438    0.0000 H1        1 <0>        0.00000
     26 H9          1.6500    0.6188    0.0000 H1        1 <0>        0.00000
     27 H10         1.6500    0.6188    0.0000 H1        1 <0>        0.00000
     28 H11         1.6500    0.6188    0.0000 H1        1 <0>        0.00000
     29 H12         2.3645   -2.2688    0.0000 H1        1 <0>        0.00000
     30 H13         2.3645   -2.2688    0.0000 H1        1 <0>        0.00000
     31 H14         2.3645   -2.2688    0.0000 H1        1 <0>        0.00000
@<TRIPOS>BOND
     1    1   14 1
     2    2    4 2
     3    2    5 2
     4    2    9 1
     5    2   13 1
     6    3    6 2
     7    3    7 2
     8    3   10 1
     9    3   16 1
    10    8   15 2
    11    9   10 1
    12    9   12 1
    13   10   15 am
    14   11   15 am
    15   11   17 1
    16   12   14 1
    17   11   18 1
    18   12   19 1
    19   12   20 1
    20   13   21 1
    21   13   22 1
    22   13   23 1
    23   14   24 1
    24   14   25 1
    25   16   26 1
    26   16   27 1
    27   16   28 1
    28   17   29 1
    29   17   30 1
    30   17   31 1
@<TRIPOS>SUBSTRUCTURE
     1 <0>         1 GROUP 0 A     ****
@<TRIPOS>MOLECULE
RSA
   26    27     1     0     0
SMALL
NO_CHARGES

@<TRIPOS>ATOM
      1 C1         -1.7057    2.5749    0.0000 C2        1 <0>        0.00000
      2 C2         -1.4507    1.7903    0.0000 C2        1 <0>        0.00000
      3 C3         -1.1958    1.0057    0.0000 CT        1 <0>        0.00000
      4 N1         -0.3888    0.8341    0.0000 N3        1 <0>        0.00000
      5 C4         -0.1339    0.0495    0.0000 CT        1 <0>        0.00000
      6 C5         -0.6188   -0.6179    0.0000 CT        1 <0>        0.00000
      7 C6         -0.1339   -1.2854    0.0000 CT        1 <0>        0.00000
      8 C7          0.6507   -1.0304    0.0000 CA        1 <0>        0.00000
      9 C8          0.6507   -0.2054    0.0000 CA        1 <0>        0.00000
     10 C9          1.3652    0.2071    0.0000 CA        1 <0>        0.00000
     11 C10         1.3652   -1.4429    0.0000 CA        1 <0>        0.00000
     12 C11         2.0797   -1.0304    0.0000 CA        1 <0>        0.00000
     13 C12         2.0797   -0.2054    0.0000 CA        1 <0>        0.00000
     14 H1         -0.7106    0.1408    0.0000 H1        1 <0>        0.00000
     15 H2         -1.7057    2.5749    0.0000 HC        1 <0>        0.00000
     16 H3         -1.1958    1.0057    0.0000 H1        1 <0>        0.00000
     17 H4         -1.1958    1.0057    0.0000 H1        1 <0>        0.00000
     18 H5         -0.3888    0.8341    0.0000 H         1 <0>        0.00000
     19 H6         -0.6188   -0.6179    0.0000 HC        1 <0>        0.00000
     20 H7         -0.6188   -0.6179    0.0000 HC        1 <0>        0.00000
     21 H8         -0.1339   -1.2854    0.0000 HC        1 <0>        0.00000
     22 H9         -0.1339   -1.2854    0.0000 HC        1 <0>        0.00000
     23 H10         1.3652    0.2071    0.0000 HA        1 <0>        0.00000
     24 H11         1.3652   -1.4429    0.0000 HA        1 <0>        0.00000
     25 H12         2.0797   -1.0304    0.0000 HA        1 <0>        0.00000
     26 H13         2.0797   -0.2054    0.0000 HA        1 <0>        0.00000
@<TRIPOS>BOND
     1    1    2 3
     2    2    3 1
     3    3    4 1
     4    4    5 1
     5    5    6 1
     6    5    9 1
     7    5   14 1
     8    6    7 1
     9    7    8 1
    10    8    9 ar
    11    8   11 ar
    12    9   10 ar
    13   10   13 ar
    14   11   12 ar
    15   12   13 ar
    16    1   15 1
    17    3   16 1
    18    3   17 1
    19    4   18 1
    20    6   19 1
    21    6   20 1
    22    7   21 1
    23    7   22 1
    24   10   23 1
    25   11   24 1
    26   12   25 1
    27   13   26 1
@<TRIPOS>SUBSTRUCTURE
     1 <0>         1 GROUP 0 A     ****
@<TRIPOS>MOLECULE
MiniDrugBank_139
   71    77     1     0     0
SMALL
NO_CHARGES

@<TRIPOS>ATOM
      1 O1          0.1278    0.0746    0.0000 O         1 <0>        0.00000
      2 C1         -0.0288   -0.7354    0.0000 C         1 <0>        0.00000
      3 N1         -0.7762   -1.0848    0.0000 N         1 <0>        0.00000
      4 C2         -0.6749   -1.9036    0.0000 C         1 <0>        0.00000
      5 O2         -1.2777   -2.4668    0.0000 O         1 <0>        0.00000
      6 C3          0.1351   -2.0602    0.0000 CT        1 <0>        0.00000
      7 C4          0.5344   -1.3383    0.0000 CT        1 <0>        0.00000
      8 C5          1.1407   -0.9495    0.0000 CT        1 <0>        0.00000
      9 C6          1.9362   -1.4148    0.0000 CT        1 <0>        0.00000
     10 C7          1.6411   -2.0402    0.0000 CT        1 <0>        0.00000
     11 C8          0.9106   -1.6699    0.0000 CT        1 <0>        0.00000
     12 C9          0.9807   -0.1341    0.0000 CT        1 <0>        0.00000
     13 C10        -1.4982   -0.6855    0.0000 CT        1 <0>        0.00000
     14 C11        -2.2049   -1.1111    0.0000 CT        1 <0>        0.00000
     15 C12        -2.1897   -1.9360    0.0000 CT        1 <0>        0.00000
     16 C13        -2.8965   -2.3615    0.0000 CT        1 <0>        0.00000
     17 C14        -3.6184   -1.9623    0.0000 CT        1 <0>        0.00000
     18 C15        -3.6336   -1.1374    0.0000 CT        1 <0>        0.00000
     19 C16        -2.9269   -0.7118    0.0000 CT        1 <0>        0.00000
     20 C17        -2.9420    0.1130    0.0000 CT        1 <0>        0.00000
     21 N2         -2.2353    0.5386    0.0000 N3        1 <0>        0.00000
     22 C18        -2.2505    1.3635    0.0000 CT        1 <0>        0.00000
     23 C19        -1.5437    1.7891    0.0000 CT        1 <0>        0.00000
     24 N3         -0.8218    1.3898    0.0000 N3        1 <0>        0.00000
     25 C20        -0.1150    1.8154    0.0000 CR        1 <0>        0.00000
     26 N4         -0.0439    2.6373    0.0000 NB        1 <0>        0.00000
     27 S1          0.7598    2.8236    0.0000 S         1 <0>        0.00000
     28 C21         1.1854    2.1169    0.0000 CB        1 <0>        0.00000
     29 C22         1.9954    1.9602    0.0000 CA        1 <0>        0.00000
     30 C23         2.2647    1.1804    0.0000 CA        1 <0>        0.00000
     31 C24         1.7240    0.5573    0.0000 CA        1 <0>        0.00000
     32 C25         0.9141    0.7139    0.0000 CA        1 <0>        0.00000
     33 C26         0.6447    1.4937    0.0000 CB        1 <0>        0.00000
     34 C27        -0.8066    0.5649    0.0000 CT        1 <0>        0.00000
     35 C28        -1.5133    0.1393    0.0000 CT        1 <0>        0.00000
     36 H1          0.1351   -2.0602    0.0000 HC        1 <0>        0.00000
     37 H2          0.5344   -1.3383    0.0000 HC        1 <0>        0.00000
     38 H3          1.1407   -0.9495    0.0000 HC        1 <0>        0.00000
     39 H4          1.9362   -1.4148    0.0000 HC        1 <0>        0.00000
     40 H5          1.9362   -1.4148    0.0000 HC        1 <0>        0.00000
     41 H6          1.6411   -2.0402    0.0000 HC        1 <0>        0.00000
     42 H7          1.6411   -2.0402    0.0000 HC        1 <0>        0.00000
     43 H8          0.9106   -1.6699    0.0000 HC        1 <0>        0.00000
     44 H9          0.9807   -0.1341    0.0000 HC        1 <0>        0.00000
     45 H10         0.9807   -0.1341    0.0000 HC        1 <0>        0.00000
     46 H11        -1.4982   -0.6855    0.0000 H1        1 <0>        0.00000
     47 H12        -1.4982   -0.6855    0.0000 H1        1 <0>        0.00000
     48 H13        -2.2049   -1.1111    0.0000 HC        1 <0>        0.00000
     49 H14        -2.1897   -1.9360    0.0000 HC        1 <0>        0.00000
     50 H15        -2.1897   -1.9360    0.0000 HC        1 <0>        0.00000
     51 H16        -2.8965   -2.3615    0.0000 HC        1 <0>        0.00000
     52 H17        -2.8965   -2.3615    0.0000 HC        1 <0>        0.00000
     53 H18        -3.6184   -1.9623    0.0000 HC        1 <0>        0.00000
     54 H19        -3.6184   -1.9623    0.0000 HC        1 <0>        0.00000
     55 H20        -3.6336   -1.1374    0.0000 HC        1 <0>        0.00000
     56 H21        -3.6336   -1.1374    0.0000 HC        1 <0>        0.00000
     57 H22        -2.9269   -0.7118    0.0000 HC        1 <0>        0.00000
     58 H23        -2.9420    0.1130    0.0000 H1        1 <0>        0.00000
     59 H24        -2.9420    0.1130    0.0000 H1        1 <0>        0.00000
     60 H25        -2.2505    1.3635    0.0000 H1        1 <0>        0.00000
     61 H26        -2.2505    1.3635    0.0000 H1        1 <0>        0.00000
     62 H27        -1.5437    1.7891    0.0000 H1        1 <0>        0.00000
     63 H28        -1.5437    1.7891    0.0000 H1        1 <0>        0.00000
     64 H29         1.9954    1.9602    0.0000 HA        1 <0>        0.00000
     65 H30         2.2647    1.1804    0.0000 HA        1 <0>        0.00000
     66 H31         1.7240    0.5573    0.0000 HA        1 <0>        0.00000
     67 H32         0.9141    0.7139    0.0000 HA        1 <0>        0.00000
     68 H33        -0.8066    0.5649    0.0000 H1        1 <0>        0.00000
     69 H34        -0.8066    0.5649    0.0000 H1        1 <0>        0.00000
     70 H35        -1.5133    0.1393    0.0000 H1        1 <0>        0.00000
     71 H36        -1.5133    0.1393    0.0000 H1        1 <0>        0.00000
@<TRIPOS>BOND
     1    1    2 2
     2    2    3 am
     3    3    4 am
     4    4    5 2
     5    4    6 1
     6    6    7 1
     7    2    7 1
     8    7    8 1
     9    8    9 1
    10    9   10 1
    11   10   11 1
    12    6   11 1
    13   11   12 1
    14    8   12 1
    15    3   13 1
    16   13   14 1
    17   14   15 1
    18   15   16 1
    19   16   17 1
    20   17   18 1
    21   18   19 1
    22   14   19 1
    23   19   20 1
    24   20   21 1
    25   21   22 1
    26   22   23 1
    27   23   24 1
    28   24   25 1
    29   25   26 2
    30   26   27 1
    31   27   28 1
    32   28   29 ar
    33   29   30 ar
    34   30   31 ar
    35   31   32 ar
    36   32   33 ar
    37   28   33 ar
    38   25   33 1
    39   24   34 1
    40   34   35 1
    41   21   35 1
    42    6   36 1
    43    7   37 1
    44    8   38 1
    45    9   39 1
    46    9   40 1
    47   10   41 1
    48   10   42 1
    49   11   43 1
    50   12   44 1
    51   12   45 1
    52   13   46 1
    53   13   47 1
    54   14   48 1
    55   15   49 1
    56   15   50 1
    57   16   51 1
    58   16   52 1
    59   17   53 1
    60   17   54 1
    61   18   55 1
    62   18   56 1
    63   19   57 1
    64   20   58 1
    65   20   59 1
    66   22   60 1
    67   22   61 1
    68   23   62 1
    69   23   63 1
    70   29   64 1
    71   30   65 1
    72   31   66 1
    73   32   67 1
    74   34   68 1
    75   34   69 1
    76   35   70 1
    77   35   71 1
@<TRIPOS>SUBSTRUCTURE
     1 <0>         1 GROUP 0 A     ****
@<TRIPOS>MOLECULE
944
   92    93     1     0     0
SMALL
NO_CHARGES

@<TRIPOS>ATOM
      1 O1          9.8294   13.2993    0.0000 OS        1 <0>        0.00000
      2 O2          4.8281    3.8116    0.0000 OS        1 <0>        0.00000
      3 O3         10.5440   12.0618    0.0000 O         1 <0>        0.00000
      4 O4          4.1135    5.0491    0.0000 O         1 <0>        0.00000
      5 N1         11.2584   15.7743    0.0000 N3        1 <0>        0.00000
      6 N2          3.3991    1.3365    0.0000 N3        1 <0>        0.00000
      7 N3          9.1150   12.0618    0.0000 N         1 <0>        0.00000
      8 N4          5.5426    5.0491    0.0000 N         1 <0>        0.00000
      9 C1          7.6860    8.7617    0.0000 CT        1 <0>        0.00000
     10 C2          6.9715    8.3492    0.0000 CT        1 <0>        0.00000
     11 C3          7.6860    9.5867    0.0000 CT        1 <0>        0.00000
     12 C4          6.9715    7.5242    0.0000 CT        1 <0>        0.00000
     13 C5          8.4005    9.9992    0.0000 CT        1 <0>        0.00000
     14 C6          6.2570    7.1117    0.0000 CT        1 <0>        0.00000
     15 C7          8.4005   10.8242    0.0000 CT        1 <0>        0.00000
     16 C8          6.2570    6.2866    0.0000 CT        1 <0>        0.00000
     17 C9          9.1150   11.2367    0.0000 CT        1 <0>        0.00000
     18 C10         5.5426    5.8741    0.0000 CT        1 <0>        0.00000
     19 C11        11.2584   14.9493    0.0000 CA        1 <0>        0.00000
     20 C12         3.3991    2.1615    0.0000 CA        1 <0>        0.00000
     21 C13        11.2584   16.5994    0.0000 CT        1 <0>        0.00000
     22 C14        12.0835   15.7743    0.0000 CT        1 <0>        0.00000
     23 C15        10.4334   15.7743    0.0000 CT        1 <0>        0.00000
     24 C16         3.3991    0.5115    0.0000 CT        1 <0>        0.00000
     25 C17         2.5741    1.3365    0.0000 CT        1 <0>        0.00000
     26 C18         4.2241    1.3365    0.0000 CT        1 <0>        0.00000
     27 C19        10.5440   14.5368    0.0000 CA        1 <0>        0.00000
     28 C20         4.1135    2.5741    0.0000 CA        1 <0>        0.00000
     29 C21        11.9729   14.5368    0.0000 CA        1 <0>        0.00000
     30 C22         2.6846    2.5741    0.0000 CA        1 <0>        0.00000
     31 C23        10.5440   13.7118    0.0000 CA        1 <0>        0.00000
     32 C24         4.1135    3.3991    0.0000 CA        1 <0>        0.00000
     33 C25         9.8294   12.4743    0.0000 C         1 <0>        0.00000
     34 C26         4.8281    4.6366    0.0000 C         1 <0>        0.00000
     35 C27         8.4005   12.4743    0.0000 CT        1 <0>        0.00000
     36 C28         6.2570    4.6366    0.0000 CT        1 <0>        0.00000
     37 C29        11.9729   13.7118    0.0000 CA        1 <0>        0.00000
     38 C30         2.6846    3.3991    0.0000 CA        1 <0>        0.00000
     39 C31        11.2584   13.2993    0.0000 CA        1 <0>        0.00000
     40 C32         3.3991    3.8116    0.0000 CA        1 <0>        0.00000
     41 H1          7.6860    8.7617    0.0000 HC        1 <0>        0.00000
     42 H2          7.6860    8.7617    0.0000 HC        1 <0>        0.00000
     43 H3          6.9715    8.3492    0.0000 HC        1 <0>        0.00000
     44 H4          6.9715    8.3492    0.0000 HC        1 <0>        0.00000
     45 H5          7.6860    9.5867    0.0000 HC        1 <0>        0.00000
     46 H6          7.6860    9.5867    0.0000 HC        1 <0>        0.00000
     47 H7          6.9715    7.5242    0.0000 HC        1 <0>        0.00000
     48 H8          6.9715    7.5242    0.0000 HC        1 <0>        0.00000
     49 H9          8.4005    9.9992    0.0000 HC        1 <0>        0.00000
     50 H10         8.4005    9.9992    0.0000 HC        1 <0>        0.00000
     51 H11         6.2570    7.1117    0.0000 HC        1 <0>        0.00000
     52 H12         6.2570    7.1117    0.0000 HC        1 <0>        0.00000
     53 H13         8.4005   10.8242    0.0000 HC        1 <0>        0.00000
     54 H14         8.4005   10.8242    0.0000 HC        1 <0>        0.00000
     55 H15         6.2570    6.2866    0.0000 HC        1 <0>        0.00000
     56 H16         6.2570    6.2866    0.0000 HC        1 <0>        0.00000
     57 H17         9.1150   11.2367    0.0000 H1        1 <0>        0.00000
     58 H18         9.1150   11.2367    0.0000 H1        1 <0>        0.00000
     59 H19         5.5426    5.8741    0.0000 H1        1 <0>        0.00000
     60 H20         5.5426    5.8741    0.0000 H1        1 <0>        0.00000
     61 H21        11.2584   16.5994    0.0000 HP        1 <0>        0.00000
     62 H22        11.2584   16.5994    0.0000 HP        1 <0>        0.00000
     63 H23        11.2584   16.5994    0.0000 HP        1 <0>        0.00000
     64 H24        12.0835   15.7743    0.0000 HP        1 <0>        0.00000
     65 H25        12.0835   15.7743    0.0000 HP        1 <0>        0.00000
     66 H26        12.0835   15.7743    0.0000 HP        1 <0>        0.00000
     67 H27        10.4334   15.7743    0.0000 HP        1 <0>        0.00000
     68 H28        10.4334   15.7743    0.0000 HP        1 <0>        0.00000
     69 H29        10.4334   15.7743    0.0000 HP        1 <0>        0.00000
     70 H30         3.3991    0.5115    0.0000 HP        1 <0>        0.00000
     71 H31         3.3991    0.5115    0.0000 HP        1 <0>        0.00000
     72 H32         3.3991    0.5115    0.0000 HP        1 <0>        0.00000
     73 H33         2.5741    1.3365    0.0000 HP        1 <0>        0.00000
     74 H34         2.5741    1.3365    0.0000 HP        1 <0>        0.00000
     75 H35         2.5741    1.3365    0.0000 HP        1 <0>        0.00000
     76 H36         4.2241    1.3365    0.0000 HP        1 <0>        0.00000
     77 H37         4.2241    1.3365    0.0000 HP        1 <0>        0.00000
     78 H38         4.2241    1.3365    0.0000 HP        1 <0>        0.00000
     79 H39        10.5440   14.5368    0.0000 HA        1 <0>        0.00000
     80 H40         4.1135    2.5741    0.0000 HA        1 <0>        0.00000
     81 H41        11.9729   14.5368    0.0000 HA        1 <0>        0.00000
     82 H42         2.6846    2.5741    0.0000 HA        1 <0>        0.00000
     83 H43         8.4005   12.4743    0.0000 H1        1 <0>        0.00000
     84 H44         8.4005   12.4743    0.0000 H1        1 <0>        0.00000
     85 H45         8.4005   12.4743    0.0000 H1        1 <0>        0.00000
     86 H46         6.2570    4.6366    0.0000 H1        1 <0>        0.00000
     87 H47         6.2570    4.6366    0.0000 H1        1 <0>        0.00000
     88 H48         6.2570    4.6366    0.0000 H1        1 <0>        0.00000
     89 H49        11.9729   13.7118    0.0000 HA        1 <0>        0.00000
     90 H50         2.6846    3.3991    0.0000 HA        1 <0>        0.00000
     91 H51        11.2584   13.2993    0.0000 HA        1 <0>        0.00000
     92 H52         3.3991    3.8116    0.0000 HA        1 <0>        0.00000
@<TRIPOS>BOND
     1    1   31 1
     2    1   33 1
     3    2   32 1
     4    2   34 1
     5    3   33 2
     6    4   34 2
     7    5   19 1
     8    5   21 1
     9    5   22 1
    10    5   23 1
    11    6   20 1
    12    6   24 1
    13    6   25 1
    14    6   26 1
    15    7   17 1
    16    7   33 am
    17    7   35 1
    18    8   18 1
    19    8   34 am
    20    8   36 1
    21    9   10 1
    22    9   11 1
    23   10   12 1
    24   11   13 1
    25   12   14 1
    26   13   15 1
    27   14   16 1
    28   15   17 1
    29   16   18 1
    30   19   27 ar
    31   19   29 ar
    32   20   28 ar
    33   20   30 ar
    34   27   31 ar
    35   28   32 ar
    36   29   37 ar
    37   30   38 ar
    38   31   39 ar
    39   32   40 ar
    40   37   39 ar
    41   38   40 ar
    42    9   41 1
    43    9   42 1
    44   10   43 1
    45   10   44 1
    46   11   45 1
    47   11   46 1
    48   12   47 1
    49   12   48 1
    50   13   49 1
    51   13   50 1
    52   14   51 1
    53   14   52 1
    54   15   53 1
    55   15   54 1
    56   16   55 1
    57   16   56 1
    58   17   57 1
    59   17   58 1
    60   18   59 1
    61   18   60 1
    62   21   61 1
    63   21   62 1
    64   21   63 1
    65   22   64 1
    66   22   65 1
    67   22   66 1
    68   23   67 1
    69   23   68 1
    70   23   69 1
    71   24   70 1
    72   24   71 1
    73   24   72 1
    74   25   73 1
    75   25   74 1
    76   25   75 1
    77   26   76 1
    78   26   77 1
    79   26   78 1
    80   27   79 1
    81   28   80 1
    82   29   81 1
    83   30   82 1
    84   35   83 1
    85   35   84 1
    86   35   85 1
    87   36   86 1
    88   36   87 1
    89   36   88 1
    90   37   89 1
    91   38   90 1
    92   39   91 1
    93   40   92 1
@<TRIPOS>SUBSTRUCTURE
     1 <0>         1 GROUP 0 A     ****
@<TRIPOS>MOLECULE
MiniDrugBank_141
   38    39     1     0     0
SMALL
NO_CHARGES

@<TRIPOS>ATOM
      1 C1          1.3222    7.2402    0.0000 CT        1 <0>        0.00000
      2 C2          2.0367    6.8277    0.0000 CA        1 <0>        0.00000
      3 N1          2.7512    7.2402    0.0000 NC        1 <0>        0.00000
      4 C3          3.4656    6.8277    0.0000 CA        1 <0>        0.00000
      5 C4          3.4656    6.0027    0.0000 CA        1 <0>        0.00000
      6 C5          4.1801    5.5902    0.0000 CT        1 <0>        0.00000
      7 O1          4.8946    6.0027    0.0000 OS        1 <0>        0.00000
      8 P1          5.6091    5.5902    0.0000 P         1 <0>        0.00000
      9 O2          6.3235    5.1777    0.0000 OH        1 <0>        0.00000
     10 O3          6.0216    6.3047    0.0000 OH        1 <0>        0.00000
     11 O4          5.1966    4.8757    0.0000 O         1 <0>        0.00000
     12 C6          2.7512    5.5902    0.0000 CA        1 <0>        0.00000
     13 C7          2.7512    4.7652    0.0000 CT        1 <0>        0.00000
     14 N2          3.4656    4.3527    0.0000 N3        1 <0>        0.00000
     15 C8          3.4656    3.5277    0.0000 CT        1 <0>        0.00000
     16 C9          4.1331    3.0428    0.0000 CT        1 <0>        0.00000
     17 O5          3.8781    2.2581    0.0000 OS        1 <0>        0.00000
     18 N3          3.0531    2.2581    0.0000 N         1 <0>        0.00000
     19 C10         2.7982    3.0428    0.0000 C         1 <0>        0.00000
     20 O6          2.0136    3.2977    0.0000 O         1 <0>        0.00000
     21 C11         2.0367    6.0027    0.0000 CA        1 <0>        0.00000
     22 O7          1.3222    5.5902    0.0000 OH        1 <0>        0.00000
     23 H1          1.3222    7.2402    0.0000 HC        1 <0>        0.00000
     24 H2          1.3222    7.2402    0.0000 HC        1 <0>        0.00000
     25 H3          1.3222    7.2402    0.0000 HC        1 <0>        0.00000
     26 H4          3.4656    6.8277    0.0000 H4        1 <0>        0.00000
     27 H5          4.1801    5.5902    0.0000 H1        1 <0>        0.00000
     28 H6          4.1801    5.5902    0.0000 H1        1 <0>        0.00000
     29 H7          6.3235    5.1777    0.0000 HO        1 <0>        0.00000
     30 H8          6.0216    6.3047    0.0000 HO        1 <0>        0.00000
     31 H9          2.7512    4.7652    0.0000 H1        1 <0>        0.00000
     32 H10         2.7512    4.7652    0.0000 H1        1 <0>        0.00000
     33 H11         3.4656    4.3527    0.0000 H         1 <0>        0.00000
     34 H12         3.4656    3.5277    0.0000 H1        1 <0>        0.00000
     35 H13         4.1331    3.0428    0.0000 H1        1 <0>        0.00000
     36 H14         4.1331    3.0428    0.0000 H1        1 <0>        0.00000
     37 H15         3.0531    2.2581    0.0000 H         1 <0>        0.00000
     38 H16         1.3222    5.5902    0.0000 HO        1 <0>        0.00000
@<TRIPOS>BOND
     1    1    2 1
     2    2    3 ar
     3    3    4 ar
     4    4    5 ar
     5    5    6 1
     6    6    7 1
     7    7    8 1
     8    8    9 1
     9    8   10 1
    10    8   11 2
    11    5   12 ar
    12   12   13 1
    13   13   14 1
    14   14   15 1
    15   15   16 1
    16   16   17 1
    17   17   18 1
    18   18   19 am
    19   15   19 1
    20   19   20 2
    21   12   21 ar
    22    2   21 ar
    23   21   22 1
    24    1   23 1
    25    1   24 1
    26    1   25 1
    27    4   26 1
    28    6   27 1
    29    6   28 1
    30    9   29 1
    31   10   30 1
    32   13   31 1
    33   13   32 1
    34   14   33 1
    35   15   34 1
    36   16   35 1
    37   16   36 1
    38   18   37 1
    39   22   38 1
@<TRIPOS>SUBSTRUCTURE
     1 <0>         1 GROUP 0 A     ****
@<TRIPOS>MOLECULE
699
   54    56     1     0     0
SMALL
NO_CHARGES

@<TRIPOS>ATOM
      1 F1          0.0316    4.1043    0.0000 F         1 <0>        0.00000
      2 C1         -0.1400    3.2974    0.0000 CT        1 <0>        0.00000
      3 F2         -0.9469    3.4689    0.0000 F         1 <0>        0.00000
      4 F3          0.6670    3.1258    0.0000 F         1 <0>        0.00000
      5 C2         -0.3115    2.4904    0.0000 CA        1 <0>        0.00000
      6 C3          0.3016    1.9383    0.0000 CA        1 <0>        0.00000
      7 C4          0.1301    1.1314    0.0000 CA        1 <0>        0.00000
      8 C5         -1.0961    2.2354    0.0000 CA        1 <0>        0.00000
      9 C6         -1.2676    1.4285    0.0000 CA        1 <0>        0.00000
     10 C7         -0.6545    0.8764    0.0000 CA        1 <0>        0.00000
     11 C8         -0.8261    0.0695    0.0000 C         1 <0>        0.00000
     12 O1         -0.2130   -0.4826    0.0000 O         1 <0>        0.00000
     13 N1         -1.6107   -0.1855    0.0000 N         1 <0>        0.00000
     14 C9         -1.8656   -0.9701    0.0000 CT        1 <0>        0.00000
     15 C10        -1.0587   -1.1416    0.0000 C         1 <0>        0.00000
     16 O2         -0.5066   -0.5285    0.0000 OH        1 <0>        0.00000
     17 O3         -0.8037   -1.9262    0.0000 O         1 <0>        0.00000
     18 C11        -1.9519   -1.7906    0.0000 CT        1 <0>        0.00000
     19 C12        -2.7055   -2.1261    0.0000 CT        1 <0>        0.00000
     20 C13        -2.7918   -2.9466    0.0000 CT        1 <0>        0.00000
     21 C14        -3.3730   -1.6412    0.0000 CT        1 <0>        0.00000
     22 C15        -2.6906   -0.9701    0.0000 CT        1 <0>        0.00000
     23 C16        -2.9456   -0.1855    0.0000 CT        1 <0>        0.00000
     24 C17        -3.7302    0.0695    0.0000 C         1 <0>        0.00000
     25 O4         -4.3433   -0.4826    0.0000 OH        1 <0>        0.00000
     26 O5         -3.9017    0.8764    0.0000 O         1 <0>        0.00000
     27 C18        -2.2781    0.2995    0.0000 CT        1 <0>        0.00000
     28 C19        -2.2781    1.1245    0.0000 CW        1 <0>        0.00000
     29 S1         -2.9456    1.6094    0.0000 S         1 <0>        0.00000
     30 C20        -1.6107    1.6094    0.0000 CC        1 <0>        0.00000
     31 C21        -1.8656    2.3940    0.0000 CC        1 <0>        0.00000
     32 C22        -2.6906    2.3940    0.0000 CW        1 <0>        0.00000
     33 H1         -1.7578    0.5645    0.0000 H1        1 <0>        0.00000
     34 H2         -3.3585   -0.5984    0.0000 HC        1 <0>        0.00000
     35 H3          0.3016    1.9383    0.0000 HA        1 <0>        0.00000
     36 H4          0.1301    1.1314    0.0000 HA        1 <0>        0.00000
     37 H5         -1.0961    2.2354    0.0000 HA        1 <0>        0.00000
     38 H6         -1.2676    1.4285    0.0000 HA        1 <0>        0.00000
     39 H7         -0.5066   -0.5285    0.0000 HO        1 <0>        0.00000
     40 H8         -1.9519   -1.7906    0.0000 HC        1 <0>        0.00000
     41 H9         -1.9519   -1.7906    0.0000 HC        1 <0>        0.00000
     42 H10        -2.7055   -2.1261    0.0000 HC        1 <0>        0.00000
     43 H11        -2.7918   -2.9466    0.0000 HC        1 <0>        0.00000
     44 H12        -2.7918   -2.9466    0.0000 HC        1 <0>        0.00000
     45 H13        -2.7918   -2.9466    0.0000 HC        1 <0>        0.00000
     46 H14        -3.3730   -1.6412    0.0000 HC        1 <0>        0.00000
     47 H15        -3.3730   -1.6412    0.0000 HC        1 <0>        0.00000
     48 H16        -3.3730   -1.6412    0.0000 HC        1 <0>        0.00000
     49 H17        -2.6906   -0.9701    0.0000 HC        1 <0>        0.00000
     50 H18        -2.6906   -0.9701    0.0000 HC        1 <0>        0.00000
     51 H19        -4.3433   -0.4826    0.0000 HO        1 <0>        0.00000
     52 H20        -1.6107    1.6094    0.0000 HA        1 <0>        0.00000
     53 H21        -1.8656    2.3940    0.0000 HA        1 <0>        0.00000
     54 H22        -2.6906    2.3940    0.0000 H4        1 <0>        0.00000
@<TRIPOS>BOND
     1    1    2 1
     2    2    3 1
     3    2    4 1
     4    2    5 1
     5    5    6 ar
     6    5    8 ar
     7    6    7 ar
     8    7   10 ar
     9    8    9 ar
    10    9   10 ar
    11   10   11 1
    12   11   12 2
    13   11   13 am
    14   13   14 1
    15   13   27 1
    16   14   15 1
    17   14   18 1
    18   14   22 1
    19   15   16 1
    20   15   17 2
    21   18   19 1
    22   19   20 1
    23   19   21 1
    24   22   23 1
    25   23   24 1
    26   23   27 1
    27   23   34 1
    28   24   25 1
    29   24   26 2
    30   27   28 1
    31   27   33 1
    32   28   29 1
    33   28   30 2
    34   29   32 1
    35   30   31 1
    36   31   32 2
    37    6   35 1
    38    7   36 1
    39    8   37 1
    40    9   38 1
    41   16   39 1
    42   18   40 1
    43   18   41 1
    44   19   42 1
    45   20   43 1
    46   20   44 1
    47   20   45 1
    48   21   46 1
    49   21   47 1
    50   21   48 1
    51   22   49 1
    52   22   50 1
    53   25   51 1
    54   30   52 1
    55   31   53 1
    56   32   54 1
@<TRIPOS>SUBSTRUCTURE
     1 <0>         1 GROUP 0 A     ****
@<TRIPOS>MOLECULE
MiniDrugBank_143
   88    91     1     0     0
SMALL
NO_CHARGES

@<TRIPOS>ATOM
      1 C1          6.9377  -11.8238    0.0000 CA        1 <0>        0.00000
      2 C2          6.2232  -12.2363    0.0000 CA        1 <0>        0.00000
      3 C3          6.2232  -13.0613    0.0000 CA        1 <0>        0.00000
      4 C4          6.9377  -13.4739    0.0000 CA        1 <0>        0.00000
      5 C5          7.6522  -13.0613    0.0000 CA        1 <0>        0.00000
      6 C6          7.6522  -12.2363    0.0000 CA        1 <0>        0.00000
      7 C7          8.3666  -11.8238    0.0000 CT        1 <0>        0.00000
      8 C8          8.3666  -13.4739    0.0000 CT        1 <0>        0.00000
      9 C9          9.0811  -13.0613    0.0000 CT        1 <0>        0.00000
     10 C10         9.0811  -12.2363    0.0000 CT        1 <0>        0.00000
     11 C11         9.0811  -10.5863    0.0000 CT        1 <0>        0.00000
     12 C12         8.3666  -10.9988    0.0000 CT        1 <0>        0.00000
     13 C13         9.7956  -11.8238    0.0000 CT        1 <0>        0.00000
     14 C14         9.7956  -10.9988    0.0000 CT        1 <0>        0.00000
     15 C15        10.5802  -10.7438    0.0000 CT        1 <0>        0.00000
     16 C16        10.5802  -12.0787    0.0000 CT        1 <0>        0.00000
     17 C17        11.0651  -11.4113    0.0000 CT        1 <0>        0.00000
     18 O1          5.5087  -13.4738    0.0000 OH        1 <0>        0.00000
     19 H1          8.3666  -12.6488    0.0000 HC        1 <0>        0.00000
     20 H2          9.7956  -12.6488    0.0000 HC        1 <0>        0.00000
     21 C18         9.7956  -13.4738    0.0000 CT        1 <0>        0.00000
     22 C19        10.5100  -13.0613    0.0000 CT        1 <0>        0.00000
     23 C20        11.2245  -13.4738    0.0000 CT        1 <0>        0.00000
     24 C21        11.9390  -13.0613    0.0000 CT        1 <0>        0.00000
     25 C22        12.6534  -13.4738    0.0000 CT        1 <0>        0.00000
     26 C23        13.3679  -13.0613    0.0000 CT        1 <0>        0.00000
     27 C24        14.0824  -13.4738    0.0000 CT        1 <0>        0.00000
     28 C25        14.7969  -13.0613    0.0000 CT        1 <0>        0.00000
     29 C26        15.5113  -13.4738    0.0000 CT        1 <0>        0.00000
     30 S1         16.2258  -13.0613    0.0000 SO        1 <0>        0.00000
     31 O2         16.2258  -12.2363    0.0000 O         1 <0>        0.00000
     32 C27        16.9403  -13.4738    0.0000 CT        1 <0>        0.00000
     33 C28        17.6547  -13.0613    0.0000 CT        1 <0>        0.00000
     34 C29        18.3692  -13.4738    0.0000 CT        1 <0>        0.00000
     35 C30        19.0837  -13.0613    0.0000 CT        1 <0>        0.00000
     36 C31        19.7982  -13.4738    0.0000 CT        1 <0>        0.00000
     37 F1         18.6712  -12.3469    0.0000 F         1 <0>        0.00000
     38 F2         19.4962  -12.3469    0.0000 F         1 <0>        0.00000
     39 F3         20.5126  -13.0613    0.0000 F         1 <0>        0.00000
     40 F4         19.7982  -14.2988    0.0000 F         1 <0>        0.00000
     41 F5         20.3815  -14.0572    0.0000 F         1 <0>        0.00000
     42 O3         10.7937   -9.9470    0.0000 OH        1 <0>        0.00000
     43 C32         9.7956  -10.1738    0.0000 CT        1 <0>        0.00000
     44 H3          6.9377  -11.8238    0.0000 HA        1 <0>        0.00000
     45 H4          6.2232  -12.2363    0.0000 HA        1 <0>        0.00000
     46 H5          6.9377  -13.4739    0.0000 HA        1 <0>        0.00000
     47 H6          8.3666  -13.4739    0.0000 HC        1 <0>        0.00000
     48 H7          8.3666  -13.4739    0.0000 HC        1 <0>        0.00000
     49 H8          9.0811  -13.0613    0.0000 HC        1 <0>        0.00000
     50 H9          9.0811  -12.2363    0.0000 HC        1 <0>        0.00000
     51 H10         9.0811  -10.5863    0.0000 HC        1 <0>        0.00000
     52 H11         9.0811  -10.5863    0.0000 HC        1 <0>        0.00000
     53 H12         8.3666  -10.9988    0.0000 HC        1 <0>        0.00000
     54 H13         8.3666  -10.9988    0.0000 HC        1 <0>        0.00000
     55 H14        10.5802  -10.7438    0.0000 H1        1 <0>        0.00000
     56 H15        10.5802  -12.0787    0.0000 HC        1 <0>        0.00000
     57 H16        10.5802  -12.0787    0.0000 HC        1 <0>        0.00000
     58 H17        11.0651  -11.4113    0.0000 HC        1 <0>        0.00000
     59 H18        11.0651  -11.4113    0.0000 HC        1 <0>        0.00000
     60 H19         5.5087  -13.4738    0.0000 HO        1 <0>        0.00000
     61 H20         9.7956  -13.4738    0.0000 HC        1 <0>        0.00000
     62 H21         9.7956  -13.4738    0.0000 HC        1 <0>        0.00000
     63 H22        10.5100  -13.0613    0.0000 HC        1 <0>        0.00000
     64 H23        10.5100  -13.0613    0.0000 HC        1 <0>        0.00000
     65 H24        11.2245  -13.4738    0.0000 HC        1 <0>        0.00000
     66 H25        11.2245  -13.4738    0.0000 HC        1 <0>        0.00000
     67 H26        11.9390  -13.0613    0.0000 HC        1 <0>        0.00000
     68 H27        11.9390  -13.0613    0.0000 HC        1 <0>        0.00000
     69 H28        12.6534  -13.4738    0.0000 HC        1 <0>        0.00000
     70 H29        12.6534  -13.4738    0.0000 HC        1 <0>        0.00000
     71 H30        13.3679  -13.0613    0.0000 HC        1 <0>        0.00000
     72 H31        13.3679  -13.0613    0.0000 HC        1 <0>        0.00000
     73 H32        14.0824  -13.4738    0.0000 HC        1 <0>        0.00000
     74 H33        14.0824  -13.4738    0.0000 HC        1 <0>        0.00000
     75 H34        14.7969  -13.0613    0.0000 HC        1 <0>        0.00000
     76 H35        14.7969  -13.0613    0.0000 HC        1 <0>        0.00000
     77 H36        15.5113  -13.4738    0.0000 H1        1 <0>        0.00000
     78 H37        15.5113  -13.4738    0.0000 H1        1 <0>        0.00000
     79 H38        16.9403  -13.4738    0.0000 H1        1 <0>        0.00000
     80 H39        16.9403  -13.4738    0.0000 H1        1 <0>        0.00000
     81 H40        17.6547  -13.0613    0.0000 HC        1 <0>        0.00000
     82 H41        17.6547  -13.0613    0.0000 HC        1 <0>        0.00000
     83 H42        18.3692  -13.4738    0.0000 HC        1 <0>        0.00000
     84 H43        18.3692  -13.4738    0.0000 HC        1 <0>        0.00000
     85 H44        10.7937   -9.9470    0.0000 HO        1 <0>        0.00000
     86 H45         9.7956  -10.1738    0.0000 HC        1 <0>        0.00000
     87 H46         9.7956  -10.1738    0.0000 HC        1 <0>        0.00000
     88 H47         9.7956  -10.1738    0.0000 HC        1 <0>        0.00000
@<TRIPOS>BOND
     1    1    2 ar
     2    2    3 ar
     3    3    4 ar
     4    4    5 ar
     5    1    6 ar
     6    6    7 1
     7    5    6 ar
     8    5    8 1
     9    8    9 1
    10    9   10 1
    11    7   12 1
    12    7   10 1
    13   10   13 1
    14   11   12 1
    15   11   14 1
    16   14   15 1
    17   13   14 1
    18   13   16 1
    19   16   17 1
    20   15   17 1
    21    3   18 1
    22    7   19 1
    23   13   20 1
    24    9   21 1
    25   21   22 1
    26   22   23 1
    27   23   24 1
    28   24   25 1
    29   25   26 1
    30   26   27 1
    31   27   28 1
    32   28   29 1
    33   29   30 1
    34   30   31 2
    35   30   32 1
    36   32   33 1
    37   33   34 1
    38   34   35 1
    39   35   36 1
    40   35   37 1
    41   35   38 1
    42   36   39 1
    43   36   40 1
    44   36   41 1
    45   15   42 1
    46   14   43 1
    47    1   44 1
    48    2   45 1
    49    4   46 1
    50    8   47 1
    51    8   48 1
    52    9   49 1
    53   10   50 1
    54   11   51 1
    55   11   52 1
    56   12   53 1
    57   12   54 1
    58   15   55 1
    59   16   56 1
    60   16   57 1
    61   17   58 1
    62   17   59 1
    63   18   60 1
    64   21   61 1
    65   21   62 1
    66   22   63 1
    67   22   64 1
    68   23   65 1
    69   23   66 1
    70   24   67 1
    71   24   68 1
    72   25   69 1
    73   25   70 1
    74   26   71 1
    75   26   72 1
    76   27   73 1
    77   27   74 1
    78   28   75 1
    79   28   76 1
    80   29   77 1
    81   29   78 1
    82   32   79 1
    83   32   80 1
    84   33   81 1
    85   33   82 1
    86   34   83 1
    87   34   84 1
    88   42   85 1
    89   43   86 1
    90   43   87 1
    91   43   88 1
@<TRIPOS>SUBSTRUCTURE
     1 <0>         1 GROUP 0 A     ****
@<TRIPOS>MOLECULE
CM6
   44    47     1     0     0
SMALL
NO_CHARGES

@<TRIPOS>ATOM
      1 O1         -0.6144    1.8899    0.0000 O         1 <0>        0.00000
      2 C1         -0.6144    1.0649    0.0000 C         1 <0>        0.00000
      3 N1         -1.3289    0.6524    0.0000 N         1 <0>        0.00000
      4 C2         -2.0434    1.0649    0.0000 CA        1 <0>        0.00000
      5 C3         -2.7578    0.6524    0.0000 CA        1 <0>        0.00000
      6 C4         -3.4723    1.0649    0.0000 CA        1 <0>        0.00000
      7 N2         -3.4723    1.8899    0.0000 NC        1 <0>        0.00000
      8 C5         -2.7578    2.3024    0.0000 CA        1 <0>        0.00000
      9 C6         -2.0434    1.8899    0.0000 CA        1 <0>        0.00000
     10 C7          0.1000    0.6524    0.0000 CT        1 <0>        0.00000
     11 N3          0.8145    1.0649    0.0000 N3        1 <0>        0.00000
     12 S1          1.5290    0.6524    0.0000 SO        1 <0>        0.00000
     13 O2          1.1165   -0.0621    0.0000 O2        1 <0>        0.00000
     14 O3          1.9415    1.3669    0.0000 O2        1 <0>        0.00000
     15 C8          2.2435    0.2399    0.0000 CA        1 <0>        0.00000
     16 C9          2.9579    0.6524    0.0000 CA        1 <0>        0.00000
     17 C10         3.6724    0.2399    0.0000 CA        1 <0>        0.00000
     18 C11         3.6724   -0.5851    0.0000 CA        1 <0>        0.00000
     19 C12         2.9579   -0.9976    0.0000 CB        1 <0>        0.00000
     20 N4          2.7864   -1.8046    0.0000 NB        1 <0>        0.00000
     21 S2          1.9659   -1.8908    0.0000 S         1 <0>        0.00000
     22 N5          1.6304   -1.1372    0.0000 NB        1 <0>        0.00000
     23 C13         2.2435   -0.5851    0.0000 CB        1 <0>        0.00000
     24 C14         0.1000   -0.1726    0.0000 CA        1 <0>        0.00000
     25 C15         0.8145   -0.5851    0.0000 CA        1 <0>        0.00000
     26 C16         0.8145   -1.4101    0.0000 CA        1 <0>        0.00000
     27 C17         0.1000   -1.8226    0.0000 CA        1 <0>        0.00000
     28 C18        -0.6144   -1.4101    0.0000 CA        1 <0>        0.00000
     29 C19        -0.6144   -0.5851    0.0000 CA        1 <0>        0.00000
     30 H1          0.1000    1.2363    0.0000 H1        1 <0>        0.00000
     31 H2         -1.3289    0.6524    0.0000 H         1 <0>        0.00000
     32 H3         -2.7578    0.6524    0.0000 HA        1 <0>        0.00000
     33 H4         -3.4723    1.0649    0.0000 H4        1 <0>        0.00000
     34 H5         -2.7578    2.3024    0.0000 H4        1 <0>        0.00000
     35 H6         -2.0434    1.8899    0.0000 HA        1 <0>        0.00000
     36 H7          0.8145    1.0649    0.0000 H         1 <0>        0.00000
     37 H8          2.9579    0.6524    0.0000 HA        1 <0>        0.00000
     38 H9          3.6724    0.2399    0.0000 HA        1 <0>        0.00000
     39 H10         3.6724   -0.5851    0.0000 HA        1 <0>        0.00000
     40 H11         0.8145   -0.5851    0.0000 HA        1 <0>        0.00000
     41 H12         0.8145   -1.4101    0.0000 HA        1 <0>        0.00000
     42 H13         0.1000   -1.8226    0.0000 HA        1 <0>        0.00000
     43 H14        -0.6144   -1.4101    0.0000 HA        1 <0>        0.00000
     44 H15        -0.6144   -0.5851    0.0000 HA        1 <0>        0.00000
@<TRIPOS>BOND
     1    1    2 2
     2    2    3 am
     3    2   10 1
     4    3    4 1
     5    4    5 ar
     6    4    9 ar
     7    5    6 ar
     8    6    7 ar
     9    7    8 ar
    10    8    9 ar
    11   10   11 1
    12   10   24 1
    13   10   30 1
    14   11   12 1
    15   12   13 2
    16   12   14 2
    17   12   15 1
    18   15   16 ar
    19   15   23 ar
    20   16   17 ar
    21   17   18 ar
    22   18   19 ar
    23   19   20 2
    24   19   23 ar
    25   20   21 1
    26   21   22 1
    27   22   23 2
    28   24   25 ar
    29   24   29 ar
    30   25   26 ar
    31   26   27 ar
    32   27   28 ar
    33   28   29 ar
    34    3   31 1
    35    5   32 1
    36    6   33 1
    37    8   34 1
    38    9   35 1
    39   11   36 1
    40   16   37 1
    41   17   38 1
    42   18   39 1
    43   25   40 1
    44   26   41 1
    45   27   42 1
    46   28   43 1
    47   29   44 1
@<TRIPOS>SUBSTRUCTURE
     1 <0>         1 GROUP 0 A     ****
@<TRIPOS>MOLECULE
MiniDrugBank_145
   12    12     1     0     0
SMALL
NO_CHARGES

@<TRIPOS>ATOM
      1 S1          0.7145    2.0625    0.0000 SH        1 <0>        0.00000
      2 C1          0.7145    1.2375    0.0000 CA        1 <0>        0.00000
      3 C2          1.4289    0.8250    0.0000 CA        1 <0>        0.00000
      4 C3          1.4289    0.0000    0.0000 CA        1 <0>        0.00000
      5 C4          0.7145   -0.4125    0.0000 CA        1 <0>        0.00000
      6 C5          0.0000    0.0000    0.0000 CA        1 <0>        0.00000
      7 N1          0.0000    0.8250    0.0000 NC        1 <0>        0.00000
      8 H1          0.7145    2.0625    0.0000 HS        1 <0>        0.00000
      9 H2          1.4289    0.8250    0.0000 HA        1 <0>        0.00000
     10 H3          1.4289    0.0000    0.0000 HA        1 <0>        0.00000
     11 H4          0.7145   -0.4125    0.0000 HA        1 <0>        0.00000
     12 H5          0.0000    0.0000    0.0000 H4        1 <0>        0.00000
@<TRIPOS>BOND
     1    1    2 1
     2    2    3 ar
     3    3    4 ar
     4    4    5 ar
     5    5    6 ar
     6    6    7 ar
     7    2    7 ar
     8    1    8 1
     9    3    9 1
    10    4   10 1
    11    5   11 1
    12    6   12 1
@<TRIPOS>SUBSTRUCTURE
     1 <0>         1 GROUP 0 A     ****
@<TRIPOS>MOLECULE
952
   48    50     1     0     0
SMALL
NO_CHARGES

@<TRIPOS>ATOM
      1 S1          3.0791   -0.5003    0.0000 SO        1 <0>        0.00000
      2 O1          3.4916    0.2142    0.0000 O2        1 <0>        0.00000
      3 O2          2.6665   -1.2148    0.0000 O2        1 <0>        0.00000
      4 N1          8.2010    1.6912    0.0000 N3        1 <0>        0.00000
      5 N2          7.4321   -1.9892    0.0000 NA        1 <0>        0.00000
      6 N3          2.3645   -0.0878    0.0000 N3        1 <0>        0.00000
      7 C1          7.6884    0.1228    0.0000 CT        1 <0>        0.00000
      8 C2          8.4957    0.2930    0.0000 CT        1 <0>        0.00000
      9 C3          7.1374    0.7369    0.0000 CT        1 <0>        0.00000
     10 C4          8.7520    1.0771    0.0000 CT        1 <0>        0.00000
     11 C5          7.3937    1.5211    0.0000 CT        1 <0>        0.00000
     12 C6          7.4321   -0.6613    0.0000 CC        1 <0>        0.00000
     13 C7          6.6515   -0.9128    0.0000 CB        1 <0>        0.00000
     14 C8          7.9136   -1.3253    0.0000 CW        1 <0>        0.00000
     15 C9          6.6515   -1.7378    0.0000 CB        1 <0>        0.00000
     16 C10         8.4573    2.4754    0.0000 CT        1 <0>        0.00000
     17 C11         5.9370   -0.5003    0.0000 CA        1 <0>        0.00000
     18 C12         5.2224   -0.9128    0.0000 CA        1 <0>        0.00000
     19 C13         5.9370   -2.1503    0.0000 CA        1 <0>        0.00000
     20 C14         4.5080   -0.5003    0.0000 CT        1 <0>        0.00000
     21 C15         5.2224   -1.7378    0.0000 CA        1 <0>        0.00000
     22 C16         3.7935   -0.9128    0.0000 CT        1 <0>        0.00000
     23 C17         1.6500   -0.5003    0.0000 CT        1 <0>        0.00000
     24 H1          7.4321   -1.9892    0.0000 H         1 <0>        0.00000
     25 H2          2.3645   -0.0878    0.0000 H         1 <0>        0.00000
     26 H3          7.6884    0.1228    0.0000 HC        1 <0>        0.00000
     27 H4          8.4957    0.2930    0.0000 HC        1 <0>        0.00000
     28 H5          8.4957    0.2930    0.0000 HC        1 <0>        0.00000
     29 H6          7.1374    0.7369    0.0000 HC        1 <0>        0.00000
     30 H7          7.1374    0.7369    0.0000 HC        1 <0>        0.00000
     31 H8          8.7520    1.0771    0.0000 H1        1 <0>        0.00000
     32 H9          8.7520    1.0771    0.0000 H1        1 <0>        0.00000
     33 H10         7.3937    1.5211    0.0000 H1        1 <0>        0.00000
     34 H11         7.3937    1.5211    0.0000 H1        1 <0>        0.00000
     35 H12         7.9136   -1.3253    0.0000 H4        1 <0>        0.00000
     36 H13         8.4573    2.4754    0.0000 H1        1 <0>        0.00000
     37 H14         8.4573    2.4754    0.0000 H1        1 <0>        0.00000
     38 H15         8.4573    2.4754    0.0000 H1        1 <0>        0.00000
     39 H16         5.9370   -0.5003    0.0000 HA        1 <0>        0.00000
     40 H17         5.9370   -2.1503    0.0000 HA        1 <0>        0.00000
     41 H18         4.5080   -0.5003    0.0000 HC        1 <0>        0.00000
     42 H19         4.5080   -0.5003    0.0000 HC        1 <0>        0.00000
     43 H20         5.2224   -1.7378    0.0000 HA        1 <0>        0.00000
     44 H21         3.7935   -0.9128    0.0000 H1        1 <0>        0.00000
     45 H22         3.7935   -0.9128    0.0000 H1        1 <0>        0.00000
     46 H23         1.6500   -0.5003    0.0000 H1        1 <0>        0.00000
     47 H24         1.6500   -0.5003    0.0000 H1        1 <0>        0.00000
     48 H25         1.6500   -0.5003    0.0000 H1        1 <0>        0.00000
@<TRIPOS>BOND
     1    1    2 2
     2    1    3 2
     3    1    6 1
     4    1   22 1
     5    4   10 1
     6    4   11 1
     7    4   16 1
     8    5   14 1
     9    5   15 1
    10    6   23 1
    11    7    8 1
    12    7    9 1
    13    7   12 1
    14    8   10 1
    15    9   11 1
    16   12   13 1
    17   12   14 2
    18   13   15 ar
    19   13   17 ar
    20   15   19 ar
    21   17   18 ar
    22   18   20 1
    23   18   21 ar
    24   19   21 ar
    25   20   22 1
    26    5   24 1
    27    6   25 1
    28    7   26 1
    29    8   27 1
    30    8   28 1
    31    9   29 1
    32    9   30 1
    33   10   31 1
    34   10   32 1
    35   11   33 1
    36   11   34 1
    37   14   35 1
    38   16   36 1
    39   16   37 1
    40   16   38 1
    41   17   39 1
    42   19   40 1
    43   20   41 1
    44   20   42 1
    45   21   43 1
    46   22   44 1
    47   22   45 1
    48   23   46 1
    49   23   47 1
    50   23   48 1
@<TRIPOS>SUBSTRUCTURE
     1 <0>         1 GROUP 0 A     ****
@<TRIPOS>MOLECULE
MiniDrugBank_147
   12    11     1     0     0
SMALL
NO_CHARGES

@<TRIPOS>ATOM
      1 C1          2.0625   -0.7145    0.0000 CT        1 <0>        0.00000
      2 C2          1.2375   -0.7145    0.0000 CT        1 <0>        0.00000
      3 O1          0.8250   -1.4289    0.0000 OH        1 <0>        0.00000
      4 C3          0.8250    0.0000    0.0000 CT        1 <0>        0.00000
      5 Br1         0.0000    0.0000    0.0000 BR        1 <0>        0.00000
      6 H1          2.0625   -0.7145    0.0000 HC        1 <0>        0.00000
      7 H2          2.0625   -0.7145    0.0000 HC        1 <0>        0.00000
      8 H3          2.0625   -0.7145    0.0000 HC        1 <0>        0.00000
      9 H4          1.2375   -0.7145    0.0000 H1        1 <0>        0.00000
     10 H5          0.8250   -1.4289    0.0000 HO        1 <0>        0.00000
     11 H6          0.8250    0.0000    0.0000 H1        1 <0>        0.00000
     12 H7          0.8250    0.0000    0.0000 H1        1 <0>        0.00000
@<TRIPOS>BOND
     1    1    2 1
     2    2    3 1
     3    2    4 1
     4    4    5 1
     5    1    6 1
     6    1    7 1
     7    1    8 1
     8    2    9 1
     9    3   10 1
    10    4   11 1
    11    4   12 1
@<TRIPOS>SUBSTRUCTURE
     1 <0>         1 GROUP 0 A     ****
@<TRIPOS>MOLECULE
MiniDrugBank_148
   31    33     1     0     0
SMALL
NO_CHARGES

@<TRIPOS>ATOM
      1 O1         -0.6955    3.4867    0.0000 OH        1 <0>        0.00000
      2 C1         -0.1435    2.8736    0.0000 CT        1 <0>        0.00000
      3 C2         -0.3984    2.0890    0.0000 CT        1 <0>        0.00000
      4 O2          0.0865    1.4216    0.0000 OS        1 <0>        0.00000
      5 C3         -0.3984    0.7541    0.0000 CT        1 <0>        0.00000
      6 C4         -1.1831    1.0091    0.0000 CT        1 <0>        0.00000
      7 O3         -1.8505    0.5241    0.0000 OH        1 <0>        0.00000
      8 C5         -1.1831    1.8341    0.0000 CT        1 <0>        0.00000
      9 O4         -1.8505    2.3190    0.0000 OH        1 <0>        0.00000
     10 N1         -0.1435   -0.0305    0.0000 N*        1 <0>        0.00000
     11 C6         -0.6284   -0.6979    0.0000 CR        1 <0>        0.00000
     12 N2         -0.1435   -1.3654    0.0000 NB        1 <0>        0.00000
     13 C7          0.6411   -1.1104    0.0000 CB        1 <0>        0.00000
     14 C8          0.6411   -0.2854    0.0000 CB        1 <0>        0.00000
     15 N3          1.3556    0.1271    0.0000 NC        1 <0>        0.00000
     16 C9          2.0701   -0.2854    0.0000 CA        1 <0>        0.00000
     17 N4          2.0701   -1.1104    0.0000 NA        1 <0>        0.00000
     18 C10         1.3556   -1.5229    0.0000 CA        1 <0>        0.00000
     19 Se1         1.3556   -2.3479    0.0000 C2        1 <0>        0.00000
     20 H1         -0.6955    3.4867    0.0000 HO        1 <0>        0.00000
     21 H2         -0.1435    2.8736    0.0000 H1        1 <0>        0.00000
     22 H3         -0.1435    2.8736    0.0000 H1        1 <0>        0.00000
     23 H4         -0.3984    2.0890    0.0000 H1        1 <0>        0.00000
     24 H5         -0.3984    0.7541    0.0000 H2        1 <0>        0.00000
     25 H6         -1.1831    1.0091    0.0000 H1        1 <0>        0.00000
     26 H7         -1.8505    0.5241    0.0000 HO        1 <0>        0.00000
     27 H8         -1.1831    1.8341    0.0000 H1        1 <0>        0.00000
     28 H9         -1.8505    2.3190    0.0000 HO        1 <0>        0.00000
     29 H10        -0.6284   -0.6979    0.0000 H5        1 <0>        0.00000
     30 H11         2.0701   -0.2854    0.0000 H5        1 <0>        0.00000
     31 H12         2.0701   -1.1104    0.0000 H         1 <0>        0.00000
@<TRIPOS>BOND
     1    1    2 1
     2    2    3 1
     3    3    4 1
     4    4    5 1
     5    5    6 1
     6    6    7 1
     7    6    8 1
     8    3    8 1
     9    8    9 1
    10    5   10 1
    11   10   11 1
    12   11   12 2
    13   12   13 1
    14   13   14 2
    15   10   14 1
    16   14   15 1
    17   15   16 2
    18   16   17 1
    19   17   18 1
    20   13   18 1
    21   18   19 2
    22    1   20 1
    23    2   21 1
    24    2   22 1
    25    3   23 1
    26    5   24 1
    27    6   25 1
    28    7   26 1
    29    8   27 1
    30    9   28 1
    31   11   29 1
    32   16   30 1
    33   17   31 1
@<TRIPOS>SUBSTRUCTURE
     1 <0>         1 GROUP 0 A     ****
@<TRIPOS>MOLECULE
MiniDrugBank_149
   55    58     1     0     0
SMALL
NO_CHARGES

@<TRIPOS>ATOM
      1 C1         -1.4289    7.4250    0.0000 CA        1 <0>        0.00000
      2 C2         -2.1434    7.0125    0.0000 CA        1 <0>        0.00000
      3 C3         -0.7145    7.0125    0.0000 CA        1 <0>        0.00000
      4 C4         -2.1434    6.1875    0.0000 CA        1 <0>        0.00000
      5 C5         -1.1270    2.9980    0.0000 CJ        1 <0>        0.00000
      6 C6         -0.3020    2.9980    0.0000 CJ        1 <0>        0.00000
      7 C7          1.4289    5.7750    0.0000 CA        1 <0>        0.00000
      8 C8          0.7145    7.0125    0.0000 CA        1 <0>        0.00000
      9 C9          2.1434    6.1875    0.0000 CA        1 <0>        0.00000
     10 C10         1.4289    7.4250    0.0000 CA        1 <0>        0.00000
     11 C11         0.7145    3.7125    0.0000 CM        1 <0>        0.00000
     12 C12         0.7145    4.5375    0.0000 CM        1 <0>        0.00000
     13 C13         2.1434    3.7125    0.0000 CT        1 <0>        0.00000
     14 C14         3.5724    3.7125    0.0000 CT        1 <0>        0.00000
     15 C15         0.7145    6.1875    0.0000 CP        1 <0>        0.00000
     16 C16        -0.7145    3.7125    0.0000 CJ        1 <0>        0.00000
     17 C17         2.1434    7.0125    0.0000 CA        1 <0>        0.00000
     18 C18         1.4289    3.3000    0.0000 CT        1 <0>        0.00000
     19 C19         2.8579    3.3000    0.0000 CT        1 <0>        0.00000
     20 C20        -0.7145    6.1875    0.0000 CB        1 <0>        0.00000
     21 C21         0.0000    4.9500    0.0000 CA        1 <0>        0.00000
     22 C22        -1.4289    5.7750    0.0000 CB        1 <0>        0.00000
     23 C23         4.2868    3.3000    0.0000 C         1 <0>        0.00000
     24 C24         0.0000    5.7750    0.0000 CP        1 <0>        0.00000
     25 C25        -0.7145    4.5375    0.0000 CA        1 <0>        0.00000
     26 F1          2.8579    7.4250    0.0000 F         1 <0>        0.00000
     27 N1         -1.4289    4.9500    0.0000 NC        1 <0>        0.00000
     28 O1          1.4289    2.4750    0.0000 OH        1 <0>        0.00000
     29 O2          2.8579    2.4750    0.0000 OH        1 <0>        0.00000
     30 O3          5.0013    3.7125    0.0000 O         1 <0>        0.00000
     31 O4          4.2868    2.4750    0.0000 OH        1 <0>        0.00000
     32 H1         -1.4289    7.4250    0.0000 HA        1 <0>        0.00000
     33 H2         -2.1434    7.0125    0.0000 HA        1 <0>        0.00000
     34 H3         -0.7145    7.0125    0.0000 HA        1 <0>        0.00000
     35 H4         -2.1434    6.1875    0.0000 HA        1 <0>        0.00000
     36 H5         -1.1270    2.9980    0.0000 HC        1 <0>        0.00000
     37 H6         -1.1270    2.9980    0.0000 HC        1 <0>        0.00000
     38 H7         -0.3020    2.9980    0.0000 HC        1 <0>        0.00000
     39 H8         -0.3020    2.9980    0.0000 HC        1 <0>        0.00000
     40 H9          1.4289    5.7750    0.0000 HA        1 <0>        0.00000
     41 H10         0.7145    7.0125    0.0000 HA        1 <0>        0.00000
     42 H11         2.1434    6.1875    0.0000 HA        1 <0>        0.00000
     43 H12         1.4289    7.4250    0.0000 HA        1 <0>        0.00000
     44 H13         0.7145    3.7125    0.0000 HA        1 <0>        0.00000
     45 H14         0.7145    4.5375    0.0000 HA        1 <0>        0.00000
     46 H15         2.1434    3.7125    0.0000 HC        1 <0>        0.00000
     47 H16         2.1434    3.7125    0.0000 HC        1 <0>        0.00000
     48 H17         3.5724    3.7125    0.0000 HC        1 <0>        0.00000
     49 H18         3.5724    3.7125    0.0000 HC        1 <0>        0.00000
     50 H19        -0.7145    3.7125    0.0000 HC        1 <0>        0.00000
     51 H20         1.4289    3.3000    0.0000 H1        1 <0>        0.00000
     52 H21         2.8579    3.3000    0.0000 H1        1 <0>        0.00000
     53 H22         1.4289    2.4750    0.0000 HO        1 <0>        0.00000
     54 H23         2.8579    2.4750    0.0000 HO        1 <0>        0.00000
     55 H24         4.2868    2.4750    0.0000 HO        1 <0>        0.00000
@<TRIPOS>BOND
     1    1    2 ar
     2    1    3 ar
     3    2    4 ar
     4    5    6 1
     5    7    9 ar
     6    8   10 ar
     7   11   12 2
     8    7   15 ar
     9    8   15 ar
    10    5   16 1
    11    6   16 1
    12    9   17 ar
    13   10   17 ar
    14   11   18 1
    15   13   18 1
    16   13   19 1
    17   14   19 1
    18    3   20 ar
    19   12   21 1
    20    4   22 ar
    21   20   22 ar
    22   14   23 1
    23   15   24 1
    24   20   24 ar
    25   21   24 ar
    26   16   25 1
    27   21   25 ar
    28   17   26 1
    29   22   27 ar
    30   25   27 ar
    31   18   28 1
    32   19   29 1
    33   23   30 2
    34   23   31 1
    35    1   32 1
    36    2   33 1
    37    3   34 1
    38    4   35 1
    39    5   36 1
    40    5   37 1
    41    6   38 1
    42    6   39 1
    43    7   40 1
    44    8   41 1
    45    9   42 1
    46   10   43 1
    47   11   44 1
    48   12   45 1
    49   13   46 1
    50   13   47 1
    51   14   48 1
    52   14   49 1
    53   16   50 1
    54   18   51 1
    55   19   52 1
    56   28   53 1
    57   29   54 1
    58   31   55 1
@<TRIPOS>SUBSTRUCTURE
     1 <0>         1 GROUP 0 A     ****
@<TRIPOS>MOLECULE
MiniDrugBank_150
   11    11     1     0     0
SMALL
NO_CHARGES

@<TRIPOS>ATOM
      1 O1          2.1913    1.6913    0.0000 OH        1 <0>        0.00000
      2 C1          2.0198    0.8843    0.0000 C         1 <0>        0.00000
      3 O2          2.6329    0.3323    0.0000 O         1 <0>        0.00000
      4 C2          1.2352    0.6294    0.0000 CR        1 <0>        0.00000
      5 N1          0.9803   -0.1553    0.0000 NB        1 <0>        0.00000
      6 S1          0.1553   -0.1553    0.0000 S         1 <0>        0.00000
      7 N2         -0.0997    0.6294    0.0000 NB        1 <0>        0.00000
      8 C3          0.5678    1.1143    0.0000 CR        1 <0>        0.00000
      9 O3          0.5678    1.9393    0.0000 OH        1 <0>        0.00000
     10 H1          2.1913    1.6913    0.0000 HO        1 <0>        0.00000
     11 H2          0.5678    1.9393    0.0000 HO        1 <0>        0.00000
@<TRIPOS>BOND
     1    1    2 1
     2    2    3 2
     3    2    4 1
     4    4    5 2
     5    5    6 1
     6    6    7 1
     7    7    8 2
     8    4    8 1
     9    8    9 1
    10    1   10 1
    11    9   11 1
@<TRIPOS>SUBSTRUCTURE
     1 <0>         1 GROUP 0 A     ****
@<TRIPOS>MOLECULE
MiniDrugBank_151
   46    49     1     0     0
SMALL
NO_CHARGES

@<TRIPOS>ATOM
      1 C1         -2.6909    0.0165    0.0000 CT        1 <0>        0.00000
      2 C2         -1.8659    0.0165    0.0000 C         1 <0>        0.00000
      3 O1         -1.4534    0.7310    0.0000 O         1 <0>        0.00000
      4 O2         -1.4534   -0.6979    0.0000 OS        1 <0>        0.00000
      5 C3         -0.6284   -0.6979    0.0000 CW        1 <0>        0.00000
      6 C4         -0.1435   -1.3654    0.0000 CC        1 <0>        0.00000
      7 C5          0.6411   -1.1104    0.0000 CC        1 <0>        0.00000
      8 C6          0.6411   -0.2854    0.0000 CW        1 <0>        0.00000
      9 C7          1.3556    0.1271    0.0000 CT        1 <0>        0.00000
     10 C8          2.0701   -0.2854    0.0000 CT        1 <0>        0.00000
     11 N1          2.0701   -1.1104    0.0000 N3        1 <0>        0.00000
     12 C9          1.3556   -1.5229    0.0000 CT        1 <0>        0.00000
     13 C10         2.7845   -1.5229    0.0000 CT        1 <0>        0.00000
     14 C11         3.4990   -1.1104    0.0000 C         1 <0>        0.00000
     15 O3          4.2135   -1.5229    0.0000 O         1 <0>        0.00000
     16 C12         3.4990   -0.2854    0.0000 CJ        1 <0>        0.00000
     17 C13         3.0865    0.4290    0.0000 CJ        1 <0>        0.00000
     18 C14         3.9115    0.4290    0.0000 CJ        1 <0>        0.00000
     19 C15         2.7845   -2.3479    0.0000 CA        1 <0>        0.00000
     20 C16         3.4990   -2.7604    0.0000 CA        1 <0>        0.00000
     21 C17         3.4990   -3.5854    0.0000 CA        1 <0>        0.00000
     22 C18         2.7845   -3.9979    0.0000 CA        1 <0>        0.00000
     23 C19         2.0701   -3.5854    0.0000 CA        1 <0>        0.00000
     24 C20         2.0701   -2.7604    0.0000 CA        1 <0>        0.00000
     25 F1          1.3556   -2.3479    0.0000 F         1 <0>        0.00000
     26 S1         -0.1435   -0.0305    0.0000 S         1 <0>        0.00000
     27 H1         -2.6909    0.0165    0.0000 HC        1 <0>        0.00000
     28 H2         -2.6909    0.0165    0.0000 HC        1 <0>        0.00000
     29 H3         -2.6909    0.0165    0.0000 HC        1 <0>        0.00000
     30 H4         -0.1435   -1.3654    0.0000 HA        1 <0>        0.00000
     31 H5          1.3556    0.1271    0.0000 HC        1 <0>        0.00000
     32 H6          1.3556    0.1271    0.0000 HC        1 <0>        0.00000
     33 H7          2.0701   -0.2854    0.0000 H1        1 <0>        0.00000
     34 H8          2.0701   -0.2854    0.0000 H1        1 <0>        0.00000
     35 H9          1.3556   -1.5229    0.0000 H1        1 <0>        0.00000
     36 H10         1.3556   -1.5229    0.0000 H1        1 <0>        0.00000
     37 H11         2.7845   -1.5229    0.0000 H1        1 <0>        0.00000
     38 H12         3.4990   -0.2854    0.0000 HC        1 <0>        0.00000
     39 H13         3.0865    0.4290    0.0000 HC        1 <0>        0.00000
     40 H14         3.0865    0.4290    0.0000 HC        1 <0>        0.00000
     41 H15         3.9115    0.4290    0.0000 HC        1 <0>        0.00000
     42 H16         3.9115    0.4290    0.0000 HC        1 <0>        0.00000
     43 H17         3.4990   -2.7604    0.0000 HA        1 <0>        0.00000
     44 H18         3.4990   -3.5854    0.0000 HA        1 <0>        0.00000
     45 H19         2.7845   -3.9979    0.0000 HA        1 <0>        0.00000
     46 H20         2.0701   -3.5854    0.0000 HA        1 <0>        0.00000
@<TRIPOS>BOND
     1    1    2 1
     2    2    3 2
     3    2    4 1
     4    4    5 1
     5    5    6 2
     6    6    7 1
     7    7    8 2
     8    8    9 1
     9    9   10 1
    10   10   11 1
    11   11   12 1
    12    7   12 1
    13   11   13 1
    14   13   14 1
    15   14   15 2
    16   14   16 1
    17   16   17 1
    18   17   18 1
    19   16   18 1
    20   13   19 1
    21   19   20 ar
    22   20   21 ar
    23   21   22 ar
    24   22   23 ar
    25   23   24 ar
    26   19   24 ar
    27   24   25 1
    28    8   26 1
    29    5   26 1
    30    1   27 1
    31    1   28 1
    32    1   29 1
    33    6   30 1
    34    9   31 1
    35    9   32 1
    36   10   33 1
    37   10   34 1
    38   12   35 1
    39   12   36 1
    40   13   37 1
    41   16   38 1
    42   17   39 1
    43   17   40 1
    44   18   41 1
    45   18   42 1
    46   20   43 1
    47   21   44 1
    48   22   45 1
    49   23   46 1
@<TRIPOS>SUBSTRUCTURE
     1 <0>         1 GROUP 0 A     ****
@<TRIPOS>MOLECULE
MiniDrugBank_152
   18    18     1     0     0
SMALL
NO_CHARGES

@<TRIPOS>ATOM
      1 O1          2.1434    2.0625    0.0000 OH        1 <0>        0.00000
      2 C1          2.1434    1.2375    0.0000 C         1 <0>        0.00000
      3 O2          2.8579    0.8250    0.0000 O         1 <0>        0.00000
      4 C2          1.4289    0.8250    0.0000 CA        1 <0>        0.00000
      5 C3          1.4289    0.0000    0.0000 CA        1 <0>        0.00000
      6 C4          0.7145   -0.4125    0.0000 CA        1 <0>        0.00000
      7 S1          0.7145   -1.2375    0.0000 SH        1 <0>        0.00000
      8 C5          0.0000    0.0000    0.0000 CA        1 <0>        0.00000
      9 C6          0.0000    0.8250    0.0000 CA        1 <0>        0.00000
     10 C7          0.7145    1.2375    0.0000 CA        1 <0>        0.00000
     11 N1          0.7145    2.0625    0.0000 N2        1 <0>        0.00000
     12 O3          0.0000    2.4750    0.0000 O2        1 <0>        0.00000
     13 O4          1.4289    2.4750    0.0000 O2        1 <0>        0.00000
     14 H1          2.1434    2.0625    0.0000 HO        1 <0>        0.00000
     15 H2          1.4289    0.0000    0.0000 HA        1 <0>        0.00000
     16 H3          0.7145   -1.2375    0.0000 HS        1 <0>        0.00000
     17 H4          0.0000    0.0000    0.0000 HA        1 <0>        0.00000
     18 H5          0.0000    0.8250    0.0000 HA        1 <0>        0.00000
@<TRIPOS>BOND
     1    1    2 1
     2    2    3 2
     3    2    4 1
     4    4    5 ar
     5    5    6 ar
     6    6    7 1
     7    6    8 ar
     8    8    9 ar
     9    9   10 ar
    10    4   10 ar
    11   10   11 1
    12   11   12 1
    13   11   13 2
    14    1   14 1
    15    5   15 1
    16    7   16 1
    17    8   17 1
    18    9   18 1
@<TRIPOS>SUBSTRUCTURE
     1 <0>         1 GROUP 0 A     ****
@<TRIPOS>MOLECULE
AL3
   34    36     1     0     0
SMALL
NO_CHARGES

@<TRIPOS>ATOM
      1 C1         -2.3135   -0.0422    0.0000 CW        1 <0>        0.00000
      2 O1         -0.3295   -1.6922    0.0000 OH        1 <0>        0.00000
      3 C2          0.3850   -0.4547    0.0000 CT        1 <0>        0.00000
      4 C3         -0.3295   -0.8672    0.0000 CT        1 <0>        0.00000
      5 C4          1.0995    0.7828    0.0000 CT        1 <0>        0.00000
      6 C5          1.8139    0.3703    0.0000 CW        1 <0>        0.00000
      7 C6          2.5676    0.7059    0.0000 CC        1 <0>        0.00000
      8 C7          3.1196    0.0928    0.0000 CC        1 <0>        0.00000
      9 C8          2.7071   -0.6217    0.0000 CW        1 <0>        0.00000
     10 O2         -3.9635   -0.0422    0.0000 O2        1 <0>        0.00000
     11 O3         -3.1385    0.7828    0.0000 O2        1 <0>        0.00000
     12 N1         -3.1385   -0.8672    0.0000 N3        1 <0>        0.00000
     13 S1         -3.1385   -0.0422    0.0000 SO        1 <0>        0.00000
     14 C9         -1.8286   -0.7096    0.0000 CC        1 <0>        0.00000
     15 C10        -1.0440   -0.4547    0.0000 CC        1 <0>        0.00000
     16 C11        -1.0440    0.3703    0.0000 CW        1 <0>        0.00000
     17 S2         -1.8286    0.6253    0.0000 S         1 <0>        0.00000
     18 S3         -0.3295    0.7828    0.0000 SO        1 <0>        0.00000
     19 O4         -0.8598    1.4148    0.0000 O2        1 <0>        0.00000
     20 O5          0.2008    1.4148    0.0000 O2        1 <0>        0.00000
     21 N2          0.3850    0.3703    0.0000 N3        1 <0>        0.00000
     22 S4          1.9002   -0.4501    0.0000 S         1 <0>        0.00000
     23 H1          0.1762   -1.1591    0.0000 H1        1 <0>        0.00000
     24 H2         -0.3295   -1.6922    0.0000 HO        1 <0>        0.00000
     25 H3          0.3850   -0.4547    0.0000 H1        1 <0>        0.00000
     26 H4          0.3850   -0.4547    0.0000 H1        1 <0>        0.00000
     27 H5          1.0995    0.7828    0.0000 H1        1 <0>        0.00000
     28 H6          1.0995    0.7828    0.0000 H1        1 <0>        0.00000
     29 H7          2.5676    0.7059    0.0000 HA        1 <0>        0.00000
     30 H8          3.1196    0.0928    0.0000 HA        1 <0>        0.00000
     31 H9          2.7071   -0.6217    0.0000 H4        1 <0>        0.00000
     32 H10        -3.1385   -0.8672    0.0000 H         1 <0>        0.00000
     33 H11        -3.1385   -0.8672    0.0000 H         1 <0>        0.00000
     34 H12        -1.8286   -0.7096    0.0000 HA        1 <0>        0.00000
@<TRIPOS>BOND
     1    1   13 1
     2    1   14 2
     3    1   17 1
     4    2    4 1
     5    3    4 1
     6    3   21 1
     7    4   15 1
     8    4   23 1
     9    5    6 1
    10    5   21 1
    11    6    7 2
    12    6   22 1
    13    7    8 1
    14    8    9 2
    15    9   22 1
    16   10   13 2
    17   11   13 2
    18   12   13 1
    19   14   15 1
    20   15   16 2
    21   16   17 1
    22   16   18 1
    23   18   19 2
    24   18   20 2
    25   18   21 1
    26    2   24 1
    27    3   25 1
    28    3   26 1
    29    5   27 1
    30    5   28 1
    31    7   29 1
    32    8   30 1
    33    9   31 1
    34   12   32 1
    35   12   33 1
    36   14   34 1
@<TRIPOS>SUBSTRUCTURE
     1 <0>         1 GROUP 0 A     ****
@<TRIPOS>MOLECULE
ZFB
   42    43     1     0     0
SMALL
NO_CHARGES

@<TRIPOS>ATOM
      1 N1         -0.3660    0.2381    0.0000 N         1 <0>        0.00000
      2 C1         -0.6360   -0.5415    0.0000 C         1 <0>        0.00000
      3 O1         -0.0959   -1.1651    0.0000 O         1 <0>        0.00000
      4 O2         -1.4461   -0.6974    0.0000 OS        1 <0>        0.00000
      5 C2         -1.7162   -1.4769    0.0000 CT        1 <0>        0.00000
      6 C3         -2.5263   -1.6328    0.0000 CA        1 <0>        0.00000
      7 C4         -2.7964   -2.4124    0.0000 CA        1 <0>        0.00000
      8 C5         -3.6065   -2.5683    0.0000 CA        1 <0>        0.00000
      9 C6         -4.1466   -1.9446    0.0000 CA        1 <0>        0.00000
     10 C7         -3.8766   -1.1651    0.0000 CA        1 <0>        0.00000
     11 C8         -3.0664   -1.0092    0.0000 CA        1 <0>        0.00000
     12 C9          0.4442    0.3940    0.0000 CT        1 <0>        0.00000
     13 C10         0.9843   -0.2296    0.0000 C         1 <0>        0.00000
     14 O3          0.7142   -1.0092    0.0000 O         1 <0>        0.00000
     15 C11         1.7944   -0.0737    0.0000 CT        1 <0>        0.00000
     16 N2          2.3345   -0.6974    0.0000 NL        1 <0>        0.00000
     17 N3          2.8746   -1.3210    0.0000 NL        1 <0>        0.00000
     18 C12         0.7142    1.1736    0.0000 CT        1 <0>        0.00000
     19 C13         1.5243    1.3295    0.0000 CA        1 <0>        0.00000
     20 C14         1.7944    2.1090    0.0000 CA        1 <0>        0.00000
     21 C15         2.6045    2.2649    0.0000 CA        1 <0>        0.00000
     22 C16         3.1446    1.6413    0.0000 CA        1 <0>        0.00000
     23 C17         2.8746    0.8617    0.0000 CA        1 <0>        0.00000
     24 C18         2.0644    0.7058    0.0000 CA        1 <0>        0.00000
     25 H1          0.2530   -0.1578    0.0000 H1        1 <0>        0.00000
     26 H2         -0.3660    0.2381    0.0000 H         1 <0>        0.00000
     27 H3         -1.7162   -1.4769    0.0000 H1        1 <0>        0.00000
     28 H4         -1.7162   -1.4769    0.0000 H1        1 <0>        0.00000
     29 H5         -2.7964   -2.4124    0.0000 HA        1 <0>        0.00000
     30 H6         -3.6065   -2.5683    0.0000 HA        1 <0>        0.00000
     31 H7         -4.1466   -1.9446    0.0000 HA        1 <0>        0.00000
     32 H8         -3.8766   -1.1651    0.0000 HA        1 <0>        0.00000
     33 H9         -3.0664   -1.0092    0.0000 HA        1 <0>        0.00000
     34 H10         1.7944   -0.0737    0.0000 HP        1 <0>        0.00000
     35 H11         1.7944   -0.0737    0.0000 HP        1 <0>        0.00000
     36 H12         0.7142    1.1736    0.0000 HC        1 <0>        0.00000
     37 H13         0.7142    1.1736    0.0000 HC        1 <0>        0.00000
     38 H14         1.7944    2.1090    0.0000 HA        1 <0>        0.00000
     39 H15         2.6045    2.2649    0.0000 HA        1 <0>        0.00000
     40 H16         3.1446    1.6413    0.0000 HA        1 <0>        0.00000
     41 H17         2.8746    0.8617    0.0000 HA        1 <0>        0.00000
     42 H18         2.0644    0.7058    0.0000 HA        1 <0>        0.00000
@<TRIPOS>BOND
     1    1    2 am
     2    1   12 1
     3    2    3 2
     4    2    4 1
     5    4    5 1
     6    5    6 1
     7    6    7 ar
     8    6   11 ar
     9    7    8 ar
    10    8    9 ar
    11    9   10 ar
    12   10   11 ar
    13   12   13 1
    14   12   18 1
    15   12   25 1
    16   13   14 2
    17   13   15 1
    18   15   16 1
    19   16   17 3
    20   18   19 1
    21   19   20 ar
    22   19   24 ar
    23   20   21 ar
    24   21   22 ar
    25   22   23 ar
    26   23   24 ar
    27    1   26 1
    28    5   27 1
    29    5   28 1
    30    7   29 1
    31    8   30 1
    32    9   31 1
    33   10   32 1
    34   11   33 1
    35   15   34 1
    36   15   35 1
    37   18   36 1
    38   18   37 1
    39   20   38 1
    40   21   39 1
    41   22   40 1
    42   23   41 1
    43   24   42 1
@<TRIPOS>SUBSTRUCTURE
     1 <0>         1 GROUP 0 A     ****
@<TRIPOS>MOLECULE
MiniDrugBank_155
   18    18     1     0     0
SMALL
NO_CHARGES

@<TRIPOS>ATOM
      1 C1         -0.7145   -0.4125    0.0000 CT        1 <0>        0.00000
      2 C2          0.0000   -0.8250    0.0000 CT        1 <0>        0.00000
      3 C3          0.7145   -0.4125    0.0000 CT        1 <0>        0.00000
      4 C4         -0.7145    0.4125    0.0000 CT        1 <0>        0.00000
      5 C5          0.7145    0.4125    0.0000 CT        1 <0>        0.00000
      6 C6          0.0000    0.8250    0.0000 CT        1 <0>        0.00000
      7 Cl1         1.4289   -0.8250    0.0000 CL        1 <0>        0.00000
      8 Cl2         0.0000    1.6500    0.0000 CL        1 <0>        0.00000
      9 Cl3        -1.4289   -0.8250    0.0000 CL        1 <0>        0.00000
     10 Cl4         0.0000   -1.6500    0.0000 CL        1 <0>        0.00000
     11 Cl5        -1.4289    0.8250    0.0000 CL        1 <0>        0.00000
     12 Cl6         1.4289    0.8250    0.0000 CL        1 <0>        0.00000
     13 H1         -0.7145   -0.4125    0.0000 H1        1 <0>        0.00000
     14 H2          0.0000   -0.8250    0.0000 H1        1 <0>        0.00000
     15 H3          0.7145   -0.4125    0.0000 H1        1 <0>        0.00000
     16 H4         -0.7145    0.4125    0.0000 H1        1 <0>        0.00000
     17 H5          0.7145    0.4125    0.0000 H1        1 <0>        0.00000
     18 H6          0.0000    0.8250    0.0000 H1        1 <0>        0.00000
@<TRIPOS>BOND
     1    1    2 1
     2    2    3 1
     3    1    4 1
     4    3    5 1
     5    4    6 1
     6    5    6 1
     7    3    7 1
     8    6    8 1
     9    1    9 1
    10    2   10 1
    11    4   11 1
    12    5   12 1
    13    1   13 1
    14    2   14 1
    15    3   15 1
    16    4   16 1
    17    5   17 1
    18    6   18 1
@<TRIPOS>SUBSTRUCTURE
     1 <0>         1 GROUP 0 A     ****
@<TRIPOS>MOLECULE
MiniDrugBank_156
   67    70     1     0     0
SMALL
NO_CHARGES

@<TRIPOS>ATOM
      1 C1         20.0293  -25.3368    0.0000 CT        1 <0>        0.00000
      2 C2         20.0293  -26.1618    0.0000 CT        1 <0>        0.00000
      3 C3         20.7718  -26.5743    0.0000 CT        1 <0>        0.00000
      4 C4         21.4731  -26.1618    0.0000 CT        1 <0>        0.00000
      5 C5         21.4731  -25.3368    0.0000 CT        1 <0>        0.00000
      6 C6         20.7718  -24.9243    0.0000 CT        1 <0>        0.00000
      7 C7         20.7718  -24.0993    0.0000 C         1 <0>        0.00000
      8 O1         20.0293  -23.6868    0.0000 O         1 <0>        0.00000
      9 N1         21.4731  -23.6868    0.0000 N         1 <0>        0.00000
     10 C8         22.1743  -24.0993    0.0000 CT        1 <0>        0.00000
     11 C9         21.4731  -22.8618    0.0000 CT        1 <0>        0.00000
     12 N2         20.7718  -27.4406    0.0000 N         1 <0>        0.00000
     13 C10        21.4731  -27.8118    0.0000 C         1 <0>        0.00000
     14 C11        22.1743  -27.4406    0.0000 C         1 <0>        0.00000
     15 O2         21.4731  -28.6781    0.0000 O         1 <0>        0.00000
     16 N3         22.8756  -27.8118    0.0000 N         1 <0>        0.00000
     17 O3         22.1743  -26.5743    0.0000 O         1 <0>        0.00000
     18 C12        23.5768  -27.4406    0.0000 CA        1 <0>        0.00000
     19 N4         24.2781  -27.8118    0.0000 NC        1 <0>        0.00000
     20 C13        24.9793  -27.3993    0.0000 CA        1 <0>        0.00000
     21 C14        24.9793  -26.5743    0.0000 CA        1 <0>        0.00000
     22 C15        24.2781  -26.1618    0.0000 CA        1 <0>        0.00000
     23 C16        23.5768  -26.6156    0.0000 CA        1 <0>        0.00000
     24 Cl1        25.7218  -26.1618    0.0000 CL        1 <0>        0.00000
     25 N5         19.3281  -26.5743    0.0000 N         1 <0>        0.00000
     26 C17        18.6268  -26.2031    0.0000 C         1 <0>        0.00000
     27 C18        17.9256  -26.5743    0.0000 CR        1 <0>        0.00000
     28 O4         18.6268  -25.3368    0.0000 O         1 <0>        0.00000
     29 N6         17.1831  -26.2443    0.0000 NB        1 <0>        0.00000
     30 C19        16.6056  -26.8631    0.0000 CC        1 <0>        0.00000
     31 C20        17.0181  -27.5643    0.0000 CW        1 <0>        0.00000
     32 S1         17.8431  -27.3993    0.0000 S         1 <0>        0.00000
     33 C21        15.7806  -26.8631    0.0000 CT        1 <0>        0.00000
     34 C22        15.3681  -27.5643    0.0000 CT        1 <0>        0.00000
     35 N7         15.7806  -28.2656    0.0000 N3        1 <0>        0.00000
     36 C23        16.6056  -28.2656    0.0000 CT        1 <0>        0.00000
     37 C24        15.3681  -29.0081    0.0000 CT        1 <0>        0.00000
     38 H1         20.0293  -25.3368    0.0000 HC        1 <0>        0.00000
     39 H2         20.0293  -25.3368    0.0000 HC        1 <0>        0.00000
     40 H3         20.0293  -26.1618    0.0000 H1        1 <0>        0.00000
     41 H4         20.7718  -26.5743    0.0000 H1        1 <0>        0.00000
     42 H5         21.4731  -26.1618    0.0000 HC        1 <0>        0.00000
     43 H6         21.4731  -26.1618    0.0000 HC        1 <0>        0.00000
     44 H7         21.4731  -25.3368    0.0000 HC        1 <0>        0.00000
     45 H8         21.4731  -25.3368    0.0000 HC        1 <0>        0.00000
     46 H9         20.7718  -24.9243    0.0000 HC        1 <0>        0.00000
     47 H10        22.1743  -24.0993    0.0000 H1        1 <0>        0.00000
     48 H11        22.1743  -24.0993    0.0000 H1        1 <0>        0.00000
     49 H12        22.1743  -24.0993    0.0000 H1        1 <0>        0.00000
     50 H13        21.4731  -22.8618    0.0000 H1        1 <0>        0.00000
     51 H14        21.4731  -22.8618    0.0000 H1        1 <0>        0.00000
     52 H15        21.4731  -22.8618    0.0000 H1        1 <0>        0.00000
     53 H16        20.7718  -27.4406    0.0000 H         1 <0>        0.00000
     54 H17        22.8756  -27.8118    0.0000 H         1 <0>        0.00000
     55 H18        24.9793  -27.3993    0.0000 H4        1 <0>        0.00000
     56 H19        24.2781  -26.1618    0.0000 HA        1 <0>        0.00000
     57 H20        23.5768  -26.6156    0.0000 HA        1 <0>        0.00000
     58 H21        19.3281  -26.5743    0.0000 H         1 <0>        0.00000
     59 H22        15.7806  -26.8631    0.0000 HC        1 <0>        0.00000
     60 H23        15.7806  -26.8631    0.0000 HC        1 <0>        0.00000
     61 H24        15.3681  -27.5643    0.0000 H1        1 <0>        0.00000
     62 H25        15.3681  -27.5643    0.0000 H1        1 <0>        0.00000
     63 H26        16.6056  -28.2656    0.0000 H1        1 <0>        0.00000
     64 H27        16.6056  -28.2656    0.0000 H1        1 <0>        0.00000
     65 H28        15.3681  -29.0081    0.0000 H1        1 <0>        0.00000
     66 H29        15.3681  -29.0081    0.0000 H1        1 <0>        0.00000
     67 H30        15.3681  -29.0081    0.0000 H1        1 <0>        0.00000
@<TRIPOS>BOND
     1    1    2 1
     2    2    3 1
     3    3    4 1
     4    4    5 1
     5    5    6 1
     6    1    6 1
     7    6    7 1
     8    7    8 2
     9    7    9 am
    10    9   10 1
    11    9   11 1
    12    3   12 1
    13   12   13 am
    14   13   14 1
    15   13   15 2
    16   14   16 am
    17   14   17 2
    18   16   18 1
    19   18   19 ar
    20   19   20 ar
    21   20   21 ar
    22   21   22 ar
    23   22   23 ar
    24   18   23 ar
    25   21   24 1
    26    2   25 1
    27   25   26 am
    28   26   27 1
    29   26   28 2
    30   27   29 2
    31   29   30 1
    32   30   31 2
    33   31   32 1
    34   27   32 1
    35   30   33 1
    36   33   34 1
    37   34   35 1
    38   35   36 1
    39   31   36 1
    40   35   37 1
    41    1   38 1
    42    1   39 1
    43    2   40 1
    44    3   41 1
    45    4   42 1
    46    4   43 1
    47    5   44 1
    48    5   45 1
    49    6   46 1
    50   10   47 1
    51   10   48 1
    52   10   49 1
    53   11   50 1
    54   11   51 1
    55   11   52 1
    56   12   53 1
    57   16   54 1
    58   20   55 1
    59   22   56 1
    60   23   57 1
    61   25   58 1
    62   33   59 1
    63   33   60 1
    64   34   61 1
    65   34   62 1
    66   36   63 1
    67   36   64 1
    68   37   65 1
    69   37   66 1
    70   37   67 1
@<TRIPOS>SUBSTRUCTURE
     1 <0>         1 GROUP 0 A     ****
@<TRIPOS>MOLECULE
MiniDrugBank_157
   46    49     1     0     0
SMALL
NO_CHARGES

@<TRIPOS>ATOM
      1 O1          7.7254    1.5548    0.0000 OH        1 <0>        0.00000
      2 O2          2.3626   -1.9994    0.0000 OH        1 <0>        0.00000
      3 C1          6.8116    0.5185    0.0000 CT        1 <0>        0.00000
      4 C2          6.8116   -0.3064    0.0000 CT        1 <0>        0.00000
      5 C3          6.0971   -0.7188    0.0000 CT        1 <0>        0.00000
      6 C4          7.5921    0.7699    0.0000 CT        1 <0>        0.00000
      7 C5          6.0971    0.9310    0.0000 CT        1 <0>        0.00000
      8 C6          7.5921   -0.5577    0.0000 CT        1 <0>        0.00000
      9 C7          5.3827    0.5185    0.0000 CT        1 <0>        0.00000
     10 C8          8.0734    0.1061    0.0000 CT        1 <0>        0.00000
     11 C9          6.1102   -1.5781    0.0000 CT        1 <0>        0.00000
     12 C10         6.8116    1.3434    0.0000 CT        1 <0>        0.00000
     13 C11         4.6321   -0.7245    0.0000 CA        1 <0>        0.00000
     14 C12         5.3696   -2.0134    0.0000 CT        1 <0>        0.00000
     15 C13         4.6255   -1.5838    0.0000 CA        1 <0>        0.00000
     16 C14         8.2602    0.9263    0.0000 C2        1 <0>        0.00000
     17 C15         3.8674   -0.2592    0.0000 CA        1 <0>        0.00000
     18 C16         3.8538   -2.0372    0.0000 CA        1 <0>        0.00000
     19 C17         3.0855   -0.6947    0.0000 CA        1 <0>        0.00000
     20 C18         3.0785   -1.5898    0.0000 CA        1 <0>        0.00000
     21 C19         9.0774    1.0528    0.0000 C2        1 <0>        0.00000
     22 H1          6.0759    0.0864    0.0000 HC        1 <0>        0.00000
     23 C20         5.3827   -0.3064    0.0000 CT        1 <0>        0.00000
     24 H2          5.3762   -1.1312    0.0000 HC        1 <0>        0.00000
     25 H3          6.8988   -1.1266    0.0000 HC        1 <0>        0.00000
     26 H4          7.7254    1.5548    0.0000 HO        1 <0>        0.00000
     27 H5          2.3626   -1.9994    0.0000 HO        1 <0>        0.00000
     28 H6          6.0971    0.9310    0.0000 HC        1 <0>        0.00000
     29 H7          6.0971    0.9310    0.0000 HC        1 <0>        0.00000
     30 H8          7.5921   -0.5577    0.0000 HC        1 <0>        0.00000
     31 H9          7.5921   -0.5577    0.0000 HC        1 <0>        0.00000
     32 H10         5.3827    0.5185    0.0000 HC        1 <0>        0.00000
     33 H11         5.3827    0.5185    0.0000 HC        1 <0>        0.00000
     34 H12         8.0734    0.1061    0.0000 HC        1 <0>        0.00000
     35 H13         8.0734    0.1061    0.0000 HC        1 <0>        0.00000
     36 H14         6.1102   -1.5781    0.0000 HC        1 <0>        0.00000
     37 H15         6.1102   -1.5781    0.0000 HC        1 <0>        0.00000
     38 H16         6.8116    1.3434    0.0000 HC        1 <0>        0.00000
     39 H17         6.8116    1.3434    0.0000 HC        1 <0>        0.00000
     40 H18         6.8116    1.3434    0.0000 HC        1 <0>        0.00000
     41 H19         5.3696   -2.0134    0.0000 HC        1 <0>        0.00000
     42 H20         5.3696   -2.0134    0.0000 HC        1 <0>        0.00000
     43 H21         3.8674   -0.2592    0.0000 HA        1 <0>        0.00000
     44 H22         3.8538   -2.0372    0.0000 HA        1 <0>        0.00000
     45 H23         3.0855   -0.6947    0.0000 HA        1 <0>        0.00000
     46 H24         9.0774    1.0528    0.0000 HC        1 <0>        0.00000
@<TRIPOS>BOND
     1    1    6 1
     2    2   20 1
     3    3    4 1
     4    3    6 1
     5    3    7 1
     6    3   12 1
     7    4    5 1
     8    4    8 1
     9    5   11 1
    10    5   22 1
    11    6   10 1
    12    6   16 1
    13    7    9 1
    14    8   10 1
    15   11   14 1
    16   13   15 ar
    17   13   17 ar
    18   14   15 1
    19   15   18 ar
    20   16   21 3
    21   17   19 ar
    22   18   20 ar
    23   19   20 ar
    24    5   23 1
    25    9   23 1
    26   13   23 1
    27   23   24 1
    28    4   25 1
    29    1   26 1
    30    2   27 1
    31    7   28 1
    32    7   29 1
    33    8   30 1
    34    8   31 1
    35    9   32 1
    36    9   33 1
    37   10   34 1
    38   10   35 1
    39   11   36 1
    40   11   37 1
    41   12   38 1
    42   12   39 1
    43   12   40 1
    44   14   41 1
    45   14   42 1
    46   17   43 1
    47   18   44 1
    48   19   45 1
    49   21   46 1
@<TRIPOS>SUBSTRUCTURE
     1 <0>         1 GROUP 0 A     ****
@<TRIPOS>MOLECULE
MiniDrugBank_158
   32    32     1     0     0
SMALL
NO_CHARGES

@<TRIPOS>ATOM
      1 C1          2.8579   -0.8250    0.0000 CT        1 <0>        0.00000
      2 N1          2.1434   -0.4125    0.0000 N3        1 <0>        0.00000
      3 C2          2.5559    0.3020    0.0000 CT        1 <0>        0.00000
      4 C3          1.7309   -1.1270    0.0000 CT        1 <0>        0.00000
      5 C4          1.4289    0.0000    0.0000 CA        1 <0>        0.00000
      6 C5          0.7145   -0.4125    0.0000 CA        1 <0>        0.00000
      7 C6          0.0000    0.0000    0.0000 CA        1 <0>        0.00000
      8 C7          0.0000    0.8250    0.0000 CA        1 <0>        0.00000
      9 C8          0.7145    1.2375    0.0000 CA        1 <0>        0.00000
     10 C9          1.4289    0.8250    0.0000 CA        1 <0>        0.00000
     11 C10         0.7145    2.0625    0.0000 CT        1 <0>        0.00000
     12 O1          1.5395    2.0625    0.0000 OH        1 <0>        0.00000
     13 O2         -0.1105    2.0625    0.0000 OH        1 <0>        0.00000
     14 C11         0.7145    2.8875    0.0000 CT        1 <0>        0.00000
     15 F1          0.7145    3.7125    0.0000 F         1 <0>        0.00000
     16 F2          1.5395    2.8875    0.0000 F         1 <0>        0.00000
     17 F3         -0.1105    2.8875    0.0000 F         1 <0>        0.00000
     18 H1          2.8579   -0.8250    0.0000 HP        1 <0>        0.00000
     19 H2          2.8579   -0.8250    0.0000 HP        1 <0>        0.00000
     20 H3          2.8579   -0.8250    0.0000 HP        1 <0>        0.00000
     21 H4          2.5559    0.3020    0.0000 HP        1 <0>        0.00000
     22 H5          2.5559    0.3020    0.0000 HP        1 <0>        0.00000
     23 H6          2.5559    0.3020    0.0000 HP        1 <0>        0.00000
     24 H7          1.7309   -1.1270    0.0000 HP        1 <0>        0.00000
     25 H8          1.7309   -1.1270    0.0000 HP        1 <0>        0.00000
     26 H9          1.7309   -1.1270    0.0000 HP        1 <0>        0.00000
     27 H10         0.7145   -0.4125    0.0000 HA        1 <0>        0.00000
     28 H11         0.0000    0.0000    0.0000 HA        1 <0>        0.00000
     29 H12         0.0000    0.8250    0.0000 HA        1 <0>        0.00000
     30 H13         1.4289    0.8250    0.0000 HA        1 <0>        0.00000
     31 H14         1.5395    2.0625    0.0000 HX        1 <0>        0.00000
     32 H15        -0.1105    2.0625    0.0000 HX        1 <0>        0.00000
@<TRIPOS>BOND
     1    1    2 1
     2    2    3 1
     3    2    4 1
     4    2    5 1
     5    5    6 ar
     6    6    7 ar
     7    7    8 ar
     8    8    9 ar
     9    9   10 ar
    10    5   10 ar
    11    9   11 1
    12   11   12 1
    13   11   13 1
    14   11   14 1
    15   14   15 1
    16   14   16 1
    17   14   17 1
    18    1   18 1
    19    1   19 1
    20    1   20 1
    21    3   21 1
    22    3   22 1
    23    3   23 1
    24    4   24 1
    25    4   25 1
    26    4   26 1
    27    6   27 1
    28    7   28 1
    29    8   29 1
    30   10   30 1
    31   12   31 1
    32   13   32 1
@<TRIPOS>SUBSTRUCTURE
     1 <0>         1 GROUP 0 A     ****
@<TRIPOS>MOLECULE
MiniDrugBank_159
  109   112     1     0     0
SMALL
NO_CHARGES

 
@<TRIPOS>ATOM
      1 C1          6.6881  -10.5220    0.0000 CT        1 <0>        0.00000
      2 C2          7.4025  -10.1094    0.0000 C         1 <0>        0.00000
      3 N1          8.1171  -10.5220    0.0000 N         1 <0>        0.00000
      4 C3          8.8315  -10.1094    0.0000 CT        1 <0>        0.00000
      5 C4          9.5460  -10.5220    0.0000 C         1 <0>        0.00000
      6 N2         10.2605  -10.1094    0.0000 N         1 <0>        0.00000
      7 C5         10.9750  -10.5220    0.0000 CT        1 <0>        0.00000
      8 C6         11.6895  -10.1094    0.0000 C         1 <0>        0.00000
      9 N3         12.4040  -10.5220    0.0000 N         1 <0>        0.00000
     10 C7         13.1185  -10.1094    0.0000 CT        1 <0>        0.00000
     11 C8         13.8330  -10.5220    0.0000 C         1 <0>        0.00000
     12 N4         14.5474  -10.1094    0.0000 N         1 <0>        0.00000
     13 C9         15.2619  -10.5220    0.0000 CT        1 <0>        0.00000
     14 C10        15.9765  -10.1094    0.0000 C         1 <0>        0.00000
     15 N5          5.9736  -10.1094    0.0000 N3        1 <0>        0.00000
     16 C11        16.6390  -10.5165    0.0000 CJ        1 <0>        0.00000
     17 C12         5.9736   -9.2846    0.0000 CT        1 <0>        0.00000
     18 C13         5.2592   -8.8721    0.0000 CT        1 <0>        0.00000
     19 O1          4.5446   -9.2845    0.0000 OS        1 <0>        0.00000
     20 C14         4.5446  -10.1094    0.0000 CT        1 <0>        0.00000
     21 C15         5.2592  -10.5220    0.0000 CT        1 <0>        0.00000
     22 O2         15.9466   -9.2846    0.0000 O         1 <0>        0.00000
     23 O3         13.8330  -11.3469    0.0000 O         1 <0>        0.00000
     24 O4         11.6895   -9.2845    0.0000 O         1 <0>        0.00000
     25 O5          9.5460  -11.3469    0.0000 O         1 <0>        0.00000
     26 O6          7.4025   -9.2846    0.0000 O         1 <0>        0.00000
     27 C16        13.1185   -9.2844    0.0000 CT        1 <0>        0.00000
     28 C17         8.8315   -9.2844    0.0000 CT        1 <0>        0.00000
     29 C18        15.2619  -11.3470    0.0000 CT        1 <0>        0.00000
     30 C19        10.9750  -11.3470    0.0000 CT        1 <0>        0.00000
     31 O7         17.3549  -10.1289    0.0000 OS        1 <0>        0.00000
     32 C20        17.3535  -10.9291    0.0000 CJ        1 <0>        0.00000
     33 C21        13.8365   -8.8699    0.0000 CA        1 <0>        0.00000
     34 C22         9.5472   -8.8712    0.0000 CT        1 <0>        0.00000
     35 C23         9.5472   -8.0462    0.0000 CA        1 <0>        0.00000
     36 C24        10.2517   -7.6393    0.0000 CA        1 <0>        0.00000
     37 C25        10.2516   -6.8143    0.0000 CA        1 <0>        0.00000
     38 C26         9.5371   -6.4019    0.0000 CA        1 <0>        0.00000
     39 C27         8.8326   -6.8087    0.0000 CA        1 <0>        0.00000
     40 C28         8.8327   -7.6337    0.0000 CA        1 <0>        0.00000
     41 C29        14.5428   -9.2777    0.0000 CA        1 <0>        0.00000
     42 C30        15.2573   -8.8653    0.0000 CA        1 <0>        0.00000
     43 C31        15.2574   -8.0403    0.0000 CA        1 <0>        0.00000
     44 C32        14.5511   -7.6324    0.0000 CA        1 <0>        0.00000
     45 C33        13.8366   -8.0448    0.0000 CA        1 <0>        0.00000
     46 C34        11.6895  -11.7595    0.0000 CT        1 <0>        0.00000
     47 C35        12.3964  -11.3513    0.0000 CT        1 <0>        0.00000
     48 C36        11.6895  -12.5844    0.0000 CT        1 <0>        0.00000
     49 C37        15.9764  -11.7595    0.0000 CT        1 <0>        0.00000
     50 C38        16.6857  -11.3499    0.0000 CT        1 <0>        0.00000
     51 C39        15.9765  -12.5845    0.0000 CT        1 <0>        0.00000
     52 C40        16.6390   -9.6915    0.0000 CT        1 <0>        0.00000
     53 H1          6.6881  -10.5220    0.0000 H1        1 <0>        0.00000
     54 H2          6.6881  -10.5220    0.0000 H1        1 <0>        0.00000
     55 H3          8.1171  -10.5220    0.0000 H         1 <0>        0.00000
     56 H4          8.8315  -10.1094    0.0000 H1        1 <0>        0.00000
     57 H5         10.2605  -10.1094    0.0000 H         1 <0>        0.00000
     58 H6         10.9750  -10.5220    0.0000 H1        1 <0>        0.00000
     59 H7         12.4040  -10.5220    0.0000 H         1 <0>        0.00000
     60 H8         13.1185  -10.1094    0.0000 H1        1 <0>        0.00000
     61 H9         14.5474  -10.1094    0.0000 H         1 <0>        0.00000
     62 H10        15.2619  -10.5220    0.0000 H1        1 <0>        0.00000
     63 H11         5.9736   -9.2846    0.0000 H1        1 <0>        0.00000
     64 H12         5.9736   -9.2846    0.0000 H1        1 <0>        0.00000
     65 H13         5.2592   -8.8721    0.0000 H1        1 <0>        0.00000
     66 H14         5.2592   -8.8721    0.0000 H1        1 <0>        0.00000
     67 H15         4.5446  -10.1094    0.0000 H1        1 <0>        0.00000
     68 H16         4.5446  -10.1094    0.0000 H1        1 <0>        0.00000
     69 H17         5.2592  -10.5220    0.0000 H1        1 <0>        0.00000
     70 H18         5.2592  -10.5220    0.0000 H1        1 <0>        0.00000
     71 H19        13.1185   -9.2844    0.0000 HC        1 <0>        0.00000
     72 H20        13.1185   -9.2844    0.0000 HC        1 <0>        0.00000
     73 H21         8.8315   -9.2844    0.0000 HC        1 <0>        0.00000
     74 H22         8.8315   -9.2844    0.0000 HC        1 <0>        0.00000
     75 H23        15.2619  -11.3470    0.0000 HC        1 <0>        0.00000
     76 H24        15.2619  -11.3470    0.0000 HC        1 <0>        0.00000
     77 H25        10.9750  -11.3470    0.0000 HC        1 <0>        0.00000
     78 H26        10.9750  -11.3470    0.0000 HC        1 <0>        0.00000
     79 H27        17.3535  -10.9291    0.0000 H1        1 <0>        0.00000
     80 H28        17.3535  -10.9291    0.0000 H1        1 <0>        0.00000
     81 H29         9.5472   -8.8712    0.0000 HC        1 <0>        0.00000
     82 H30         9.5472   -8.8712    0.0000 HC        1 <0>        0.00000
     83 H31        10.2517   -7.6393    0.0000 HA        1 <0>        0.00000
     84 H32        10.2516   -6.8143    0.0000 HA        1 <0>        0.00000
     85 H33         9.5371   -6.4019    0.0000 HA        1 <0>        0.00000
     86 H34         8.8326   -6.8087    0.0000 HA        1 <0>        0.00000
     87 H35         8.8327   -7.6337    0.0000 HA        1 <0>        0.00000
     88 H36        14.5428   -9.2777    0.0000 HA        1 <0>        0.00000
     89 H37        15.2573   -8.8653    0.0000 HA        1 <0>        0.00000
     90 H38        15.2574   -8.0403    0.0000 HA        1 <0>        0.00000
     91 H39        14.5511   -7.6324    0.0000 HA        1 <0>        0.00000
     92 H40        13.8366   -8.0448    0.0000 HA        1 <0>        0.00000
     93 H41        11.6895  -11.7595    0.0000 HC        1 <0>        0.00000
     94 H42        12.3964  -11.3513    0.0000 HC        1 <0>        0.00000
     95 H43        12.3964  -11.3513    0.0000 HC        1 <0>        0.00000
     96 H44        12.3964  -11.3513    0.0000 HC        1 <0>        0.00000
     97 H45        11.6895  -12.5844    0.0000 HC        1 <0>        0.00000
     98 H46        11.6895  -12.5844    0.0000 HC        1 <0>        0.00000
     99 H47        11.6895  -12.5844    0.0000 HC        1 <0>        0.00000
    100 H48        15.9764  -11.7595    0.0000 HC        1 <0>        0.00000
    101 H49        16.6857  -11.3499    0.0000 HC        1 <0>        0.00000
    102 H50        16.6857  -11.3499    0.0000 HC        1 <0>        0.00000
    103 H51        16.6857  -11.3499    0.0000 HC        1 <0>        0.00000
    104 H52        15.9765  -12.5845    0.0000 HC        1 <0>        0.00000
    105 H53        15.9765  -12.5845    0.0000 HC        1 <0>        0.00000
    106 H54        15.9765  -12.5845    0.0000 HC        1 <0>        0.00000
    107 H55        16.6390   -9.6915    0.0000 HC        1 <0>        0.00000
    108 H56        16.6390   -9.6915    0.0000 HC        1 <0>        0.00000
    109 H57        16.6390   -9.6915    0.0000 HC        1 <0>        0.00000
@<TRIPOS>BOND
     1    1    2 1
     2    2    3 am
     3    3    4 1
     4    4    5 1
     5    5    6 am
     6    6    7 1
     7    7    8 1
     8    8    9 am
     9    9   10 1
    10   10   11 1
    11   11   12 am
    12   12   13 1
    13   13   14 1
    14    1   15 1
    15   14   16 1
    16   15   17 1
    17   17   18 1
    18   18   19 1
    19   19   20 1
    20   20   21 1
    21   15   21 1
    22   14   22 2
    23   11   23 2
    24    8   24 2
    25    5   25 2
    26    2   26 2
    27   10   27 1
    28    4   28 1
    29   13   29 1
    30    7   30 1
    31   16   31 1
    32   16   32 1
    33   31   32 1
    34   27   33 1
    35   28   34 1
    36   34   35 1
    37   35   36 ar
    38   36   37 ar
    39   37   38 ar
    40   38   39 ar
    41   39   40 ar
    42   35   40 ar
    43   33   41 ar
    44   41   42 ar
    45   42   43 ar
    46   43   44 ar
    47   44   45 ar
    48   33   45 ar
    49   30   46 1
    50   46   47 1
    51   46   48 1
    52   29   49 1
    53   49   50 1
    54   49   51 1
    55   16   52 1
    56    1   53 1
    57    1   54 1
    58    3   55 1
    59    4   56 1
    60    6   57 1
    61    7   58 1
    62    9   59 1
    63   10   60 1
    64   12   61 1
    65   13   62 1
    66   17   63 1
    67   17   64 1
    68   18   65 1
    69   18   66 1
    70   20   67 1
    71   20   68 1
    72   21   69 1
    73   21   70 1
    74   27   71 1
    75   27   72 1
    76   28   73 1
    77   28   74 1
    78   29   75 1
    79   29   76 1
    80   30   77 1
    81   30   78 1
    82   32   79 1
    83   32   80 1
    84   34   81 1
    85   34   82 1
    86   36   83 1
    87   37   84 1
    88   38   85 1
    89   39   86 1
    90   40   87 1
    91   41   88 1
    92   42   89 1
    93   43   90 1
    94   44   91 1
    95   45   92 1
    96   46   93 1
    97   47   94 1
    98   47   95 1
    99   47   96 1
   100   48   97 1
   101   48   98 1
   102   48   99 1
   103   49  100 1
   104   50  101 1
   105   50  102 1
   106   50  103 1
   107   51  104 1
   108   51  105 1
   109   51  106 1
   110   52  107 1
   111   52  108 1
   112   52  109 1
@<TRIPOS>SUBSTRUCTURE
     1 <0>         1 GROUP 0 A     ****
@<TRIPOS>MOLECULE
79Z
   54    57     1     0     0
SMALL
NO_CHARGES

@<TRIPOS>ATOM
      1 C1          2.1861    1.2467    0.0000 CJ        1 <0>        0.00000
      2 C2          1.7736    0.5322    0.0000 CJ        1 <0>        0.00000
      3 C3          2.5986    0.5322    0.0000 CJ        1 <0>        0.00000
      4 C4         -2.4643   -0.2928    0.0000 CA        1 <0>        0.00000
      5 C5         -2.8768    0.4217    0.0000 CA        1 <0>        0.00000
      6 C6         -3.7018    0.4217    0.0000 CA        1 <0>        0.00000
      7 C7         -4.1143   -0.2928    0.0000 CA        1 <0>        0.00000
      8 C8         -3.7018   -1.0073    0.0000 CA        1 <0>        0.00000
      9 C9         -2.8768   -1.0073    0.0000 CA        1 <0>        0.00000
     10 C10         1.0592    0.1197    0.0000 CA        1 <0>        0.00000
     11 C11         1.0592   -0.7053    0.0000 CA        1 <0>        0.00000
     12 C12         0.3447   -1.1178    0.0000 CA        1 <0>        0.00000
     13 C13         0.3447    0.5322    0.0000 CA        1 <0>        0.00000
     14 C14        -0.3698    0.1197    0.0000 CB        1 <0>        0.00000
     15 C15        -0.3698   -0.7053    0.0000 CB        1 <0>        0.00000
     16 O1         -1.1544   -0.9602    0.0000 OS        1 <0>        0.00000
     17 C16        -1.6393   -0.2928    0.0000 CW        1 <0>        0.00000
     18 C17        -1.1544    0.3746    0.0000 CC        1 <0>        0.00000
     19 C18        -1.4093    1.1593    0.0000 C         1 <0>        0.00000
     20 O2         -0.8573    1.7724    0.0000 O         1 <0>        0.00000
     21 N1         -2.2163    1.3308    0.0000 N         1 <0>        0.00000
     22 C19        -2.4712    2.1154    0.0000 CT        1 <0>        0.00000
     23 N2          1.7736   -1.1178    0.0000 N3        1 <0>        0.00000
     24 S1          1.7736   -1.9428    0.0000 SO        1 <0>        0.00000
     25 O3          0.9486   -1.9428    0.0000 O2        1 <0>        0.00000
     26 O4          1.7736   -2.7678    0.0000 O2        1 <0>        0.00000
     27 C20         2.5986   -1.9428    0.0000 CT        1 <0>        0.00000
     28 F1         -4.9393   -0.2928    0.0000 F         1 <0>        0.00000
     29 C21         2.4881   -0.7053    0.0000 CT        1 <0>        0.00000
     30 C22         3.2026   -1.1178    0.0000 CT        1 <0>        0.00000
     31 O5          3.9171   -0.7053    0.0000 OH        1 <0>        0.00000
     32 H1          2.1861    1.2467    0.0000 HC        1 <0>        0.00000
     33 H2          2.1861    1.2467    0.0000 HC        1 <0>        0.00000
     34 H3          1.7736    0.5322    0.0000 HC        1 <0>        0.00000
     35 H4          2.5986    0.5322    0.0000 HC        1 <0>        0.00000
     36 H5          2.5986    0.5322    0.0000 HC        1 <0>        0.00000
     37 H6         -2.8768    0.4217    0.0000 HA        1 <0>        0.00000
     38 H7         -3.7018    0.4217    0.0000 HA        1 <0>        0.00000
     39 H8         -3.7018   -1.0073    0.0000 HA        1 <0>        0.00000
     40 H9         -2.8768   -1.0073    0.0000 HA        1 <0>        0.00000
     41 H10         0.3447   -1.1178    0.0000 HA        1 <0>        0.00000
     42 H11         0.3447    0.5322    0.0000 HA        1 <0>        0.00000
     43 H12        -2.2163    1.3308    0.0000 H         1 <0>        0.00000
     44 H13        -2.4712    2.1154    0.0000 H1        1 <0>        0.00000
     45 H14        -2.4712    2.1154    0.0000 H1        1 <0>        0.00000
     46 H15        -2.4712    2.1154    0.0000 H1        1 <0>        0.00000
     47 H16         2.5986   -1.9428    0.0000 H1        1 <0>        0.00000
     48 H17         2.5986   -1.9428    0.0000 H1        1 <0>        0.00000
     49 H18         2.5986   -1.9428    0.0000 H1        1 <0>        0.00000
     50 H19         2.4881   -0.7053    0.0000 H1        1 <0>        0.00000
     51 H20         2.4881   -0.7053    0.0000 H1        1 <0>        0.00000
     52 H21         3.2026   -1.1178    0.0000 H1        1 <0>        0.00000
     53 H22         3.2026   -1.1178    0.0000 H1        1 <0>        0.00000
     54 H23         3.9171   -0.7053    0.0000 HO        1 <0>        0.00000
@<TRIPOS>BOND
     1    1    3 1
     2    1    2 1
     3    2   10 1
     4    2    3 1
     5    4    9 ar
     6    5    6 ar
     7    4    5 ar
     8    6    7 ar
     9    7   28 1
    10    7    8 ar
    11    8    9 ar
    12   10   11 ar
    13   11   12 ar
    14   11   23 1
    15   13   14 ar
    16   10   13 ar
    17   14   15 ar
    18   15   16 1
    19   12   15 ar
    20    4   17 1
    21   16   17 1
    22   14   18 1
    23   17   18 2
    24   18   19 1
    25   19   20 2
    26   19   21 am
    27   21   22 1
    28   23   24 1
    29   24   25 2
    30   24   27 1
    31   24   26 2
    32   23   29 1
    33   29   30 1
    34   30   31 1
    35    1   32 1
    36    1   33 1
    37    2   34 1
    38    3   35 1
    39    3   36 1
    40    5   37 1
    41    6   38 1
    42    8   39 1
    43    9   40 1
    44   12   41 1
    45   13   42 1
    46   21   43 1
    47   22   44 1
    48   22   45 1
    49   22   46 1
    50   27   47 1
    51   27   48 1
    52   27   49 1
    53   29   50 1
    54   29   51 1
    55   30   52 1
    56   30   53 1
    57   31   54 1
@<TRIPOS>SUBSTRUCTURE
     1 <0>         1 GROUP 0 A     ****
@<TRIPOS>MOLECULE
RMA
   29    30     1     0     0
SMALL
NO_CHARGES

@<TRIPOS>ATOM
      1 C1         -1.7541    2.5480    0.0000 C2        1 <0>        0.00000
      2 C2         -1.4991    1.7634    0.0000 C2        1 <0>        0.00000
      3 C3         -1.2442    0.9787    0.0000 CT        1 <0>        0.00000
      4 N1         -0.4372    0.8072    0.0000 N3        1 <0>        0.00000
      5 C4          0.1148    1.4203    0.0000 CT        1 <0>        0.00000
      6 C5         -0.1823    0.0226    0.0000 CT        1 <0>        0.00000
      7 C6         -0.6672   -0.6449    0.0000 CT        1 <0>        0.00000
      8 C7         -0.1823   -1.3123    0.0000 CT        1 <0>        0.00000
      9 C8          0.6023   -1.0574    0.0000 CA        1 <0>        0.00000
     10 C9          0.6023   -0.2324    0.0000 CA        1 <0>        0.00000
     11 C10         1.3168    0.1801    0.0000 CA        1 <0>        0.00000
     12 C11         1.3168   -1.4699    0.0000 CA        1 <0>        0.00000
     13 C12         2.0313   -1.0574    0.0000 CA        1 <0>        0.00000
     14 C13         2.0313   -0.2324    0.0000 CA        1 <0>        0.00000
     15 H1         -0.7590    0.1139    0.0000 H1        1 <0>        0.00000
     16 H2         -1.7541    2.5480    0.0000 HC        1 <0>        0.00000
     17 H3         -1.2442    0.9787    0.0000 H1        1 <0>        0.00000
     18 H4         -1.2442    0.9787    0.0000 H1        1 <0>        0.00000
     19 H5          0.1148    1.4203    0.0000 H1        1 <0>        0.00000
     20 H6          0.1148    1.4203    0.0000 H1        1 <0>        0.00000
     21 H7          0.1148    1.4203    0.0000 H1        1 <0>        0.00000
     22 H8         -0.6672   -0.6449    0.0000 HC        1 <0>        0.00000
     23 H9         -0.6672   -0.6449    0.0000 HC        1 <0>        0.00000
     24 H10        -0.1823   -1.3123    0.0000 HC        1 <0>        0.00000
     25 H11        -0.1823   -1.3123    0.0000 HC        1 <0>        0.00000
     26 H12         1.3168    0.1801    0.0000 HA        1 <0>        0.00000
     27 H13         1.3168   -1.4699    0.0000 HA        1 <0>        0.00000
     28 H14         2.0313   -1.0574    0.0000 HA        1 <0>        0.00000
     29 H15         2.0313   -0.2324    0.0000 HA        1 <0>        0.00000
@<TRIPOS>BOND
     1    1    2 3
     2    2    3 1
     3    3    4 1
     4    4    5 1
     5    4    6 1
     6    6    7 1
     7    6   10 1
     8    6   15 1
     9    7    8 1
    10    8    9 1
    11    9   10 ar
    12    9   12 ar
    13   10   11 ar
    14   11   14 ar
    15   12   13 ar
    16   13   14 ar
    17    1   16 1
    18    3   17 1
    19    3   18 1
    20    5   19 1
    21    5   20 1
    22    5   21 1
    23    7   22 1
    24    7   23 1
    25    8   24 1
    26    8   25 1
    27   11   26 1
    28   12   27 1
    29   13   28 1
    30   14   29 1
@<TRIPOS>SUBSTRUCTURE
     1 <0>         1 GROUP 0 A     ****
@<TRIPOS>MOLECULE
MiniDrugBank_162
   25    24     1     0     0
SMALL
NO_CHARGES

@<TRIPOS>ATOM
      1 N1          4.6184    2.6664    0.0000 N3        1 <0>        0.00000
      2 C1          4.6184    1.8414    0.0000 CT        1 <0>        0.00000
      3 C2          3.9039    1.4289    0.0000 CT        1 <0>        0.00000
      4 C3          3.1895    1.8414    0.0000 CT        1 <0>        0.00000
      5 C4          2.4750    1.4289    0.0000 CT        1 <0>        0.00000
      6 N2          1.7605    1.8414    0.0000 NB        1 <0>        0.00000
      7 C5          1.0461    1.4289    0.0000 C         1 <0>        0.00000
      8 N3          1.0461    0.6039    0.0000 N         1 <0>        0.00000
      9 S1          0.3316    1.8414    0.0000 SH        1 <0>        0.00000
     10 C6          5.3329    1.4289    0.0000 C         1 <0>        0.00000
     11 O1          6.0474    1.8414    0.0000 OH        1 <0>        0.00000
     12 O2          5.3329    0.6039    0.0000 O         1 <0>        0.00000
     13 H1          4.6184    2.6664    0.0000 H         1 <0>        0.00000
     14 H2          4.6184    2.6664    0.0000 H         1 <0>        0.00000
     15 H3          4.6184    1.8414    0.0000 H1        1 <0>        0.00000
     16 H4          3.9039    1.4289    0.0000 HC        1 <0>        0.00000
     17 H5          3.9039    1.4289    0.0000 HC        1 <0>        0.00000
     18 H6          3.1895    1.8414    0.0000 HC        1 <0>        0.00000
     19 H7          3.1895    1.8414    0.0000 HC        1 <0>        0.00000
     20 H8          2.4750    1.4289    0.0000 H1        1 <0>        0.00000
     21 H9          2.4750    1.4289    0.0000 H1        1 <0>        0.00000
     22 H10         1.0461    0.6039    0.0000 H         1 <0>        0.00000
     23 H11         1.0461    0.6039    0.0000 H         1 <0>        0.00000
     24 H12         0.3316    1.8414    0.0000 HS        1 <0>        0.00000
     25 H13         6.0474    1.8414    0.0000 HO        1 <0>        0.00000
@<TRIPOS>BOND
     1    1    2 1
     2    2    3 1
     3    3    4 1
     4    4    5 1
     5    5    6 1
     6    6    7 2
     7    7    8 1
     8    7    9 1
     9    2   10 1
    10   10   11 1
    11   10   12 2
    12    1   13 1
    13    1   14 1
    14    2   15 1
    15    3   16 1
    16    3   17 1
    17    4   18 1
    18    4   19 1
    19    5   20 1
    20    5   21 1
    21    8   22 1
    22    8   23 1
    23    9   24 1
    24   11   25 1
@<TRIPOS>SUBSTRUCTURE
     1 <0>         1 GROUP 0 A     ****
@<TRIPOS>MOLECULE
MiniDrugBank_163
   14    13     1     0     0
SMALL
NO_CHARGES

@<TRIPOS>ATOM
      1 N1          1.9520    1.9520    0.0000 N3        1 <0>        0.00000
      2 C1          1.9520    1.1270    0.0000 CT        1 <0>        0.00000
      3 C2          1.2375    0.7145    0.0000 CT        1 <0>        0.00000
      4 S1          0.5230    1.1270    0.0000 S         1 <0>        0.00000
      5 O1         -0.1914    0.7145    0.0000 O         1 <0>        0.00000
      6 C3          2.6664    0.7145    0.0000 C         1 <0>        0.00000
      7 O2          3.3809    1.1270    0.0000 OH        1 <0>        0.00000
      8 O3          2.6664   -0.1105    0.0000 O         1 <0>        0.00000
      9 H1          1.9520    1.9520    0.0000 H         1 <0>        0.00000
     10 H2          1.9520    1.9520    0.0000 H         1 <0>        0.00000
     11 H3          1.9520    1.1270    0.0000 H1        1 <0>        0.00000
     12 H4          1.2375    0.7145    0.0000 H1        1 <0>        0.00000
     13 H5          1.2375    0.7145    0.0000 H1        1 <0>        0.00000
     14 H6          3.3809    1.1270    0.0000 HO        1 <0>        0.00000
@<TRIPOS>BOND
     1    1    2 1
     2    2    3 1
     3    3    4 1
     4    4    5 2
     5    2    6 1
     6    6    7 1
     7    6    8 2
     8    1    9 1
     9    1   10 1
    10    2   11 1
    11    3   12 1
    12    3   13 1
    13    7   14 1
@<TRIPOS>SUBSTRUCTURE
     1 <0>         1 GROUP 0 A     ****
@<TRIPOS>MOLECULE
MiniDrugBank_164
   18    19     1     0     0
SMALL
NO_CHARGES

@<TRIPOS>ATOM
      1 C1          6.8474   -9.9413    0.0000 CW        1 <0>        0.00000
      2 C2          7.6724   -9.9413    0.0000 C         1 <0>        0.00000
      3 N1          7.9274   -9.1566    0.0000 N         1 <0>        0.00000
      4 O1          7.2600   -8.6717    0.0000 OS        1 <0>        0.00000
      5 C3          6.5926   -9.1566    0.0000 CC        1 <0>        0.00000
      6 O2          8.0850  -10.6557    0.0000 O         1 <0>        0.00000
      7 C4          5.7856   -8.9851    0.0000 CT        1 <0>        0.00000
      8 N2          5.2336   -9.5982    0.0000 N3        1 <0>        0.00000
      9 C5          5.4885  -10.3828    0.0000 CT        1 <0>        0.00000
     10 C6          6.2955  -10.5544    0.0000 CT        1 <0>        0.00000
     11 H1          7.9274   -9.1566    0.0000 H         1 <0>        0.00000
     12 H2          5.7856   -8.9851    0.0000 H1        1 <0>        0.00000
     13 H3          5.7856   -8.9851    0.0000 H1        1 <0>        0.00000
     14 H4          5.2336   -9.5982    0.0000 H         1 <0>        0.00000
     15 H5          5.4885  -10.3828    0.0000 H1        1 <0>        0.00000
     16 H6          5.4885  -10.3828    0.0000 H1        1 <0>        0.00000
     17 H7          6.2955  -10.5544    0.0000 HC        1 <0>        0.00000
     18 H8          6.2955  -10.5544    0.0000 HC        1 <0>        0.00000
@<TRIPOS>BOND
     1    1    2 1
     2    2    3 am
     3    3    4 1
     4    4    5 1
     5    1    5 2
     6    2    6 2
     7    5    7 1
     8    7    8 1
     9    8    9 1
    10    9   10 1
    11    1   10 1
    12    3   11 1
    13    7   12 1
    14    7   13 1
    15    8   14 1
    16    9   15 1
    17    9   16 1
    18   10   17 1
    19   10   18 1
@<TRIPOS>SUBSTRUCTURE
     1 <0>         1 GROUP 0 A     ****
@<TRIPOS>MOLECULE
957
   58    61     1     0     0
SMALL
NO_CHARGES

@<TRIPOS>ATOM
      1 O1          8.7053    0.8591    0.0000 OS        1 <0>        0.00000
      2 O2          9.5431   -0.2985    0.0000 O         1 <0>        0.00000
      3 O3          2.0940   -1.9791    0.0000 OH        1 <0>        0.00000
      4 N1          2.8069   -2.3944    0.0000 NB        1 <0>        0.00000
      5 C1          7.2563    0.1238    0.0000 CT        1 <0>        0.00000
      6 C2          7.2563   -0.7012    0.0000 CT        1 <0>        0.00000
      7 C3          6.5418   -1.1137    0.0000 CT        1 <0>        0.00000
      8 C4          5.8274   -0.7012    0.0000 CT        1 <0>        0.00000
      9 C5          8.0369    0.3753    0.0000 CT        1 <0>        0.00000
     10 C6          6.5418    0.5363    0.0000 CT        1 <0>        0.00000
     11 C7          8.0369   -0.9526    0.0000 CT        1 <0>        0.00000
     12 C8          5.8274    0.1238    0.0000 CT        1 <0>        0.00000
     13 C9          8.5184   -0.2887    0.0000 CT        1 <0>        0.00000
     14 C10         5.0766   -1.1193    0.0000 CT        1 <0>        0.00000
     15 C11         6.5550   -1.9729    0.0000 CT        1 <0>        0.00000
     16 C12         7.2563    0.9489    0.0000 CT        1 <0>        0.00000
     17 C13         5.8142   -2.4083    0.0000 CT        1 <0>        0.00000
     18 C14         5.0699   -1.9786    0.0000 CM        1 <0>        0.00000
     19 C15         4.3119   -0.6539    0.0000 CT        1 <0>        0.00000
     20 C16         7.7834    1.1604    0.0000 C2        1 <0>        0.00000
     21 C17         6.5418    1.3614    0.0000 CT        1 <0>        0.00000
     22 C18         3.5298   -1.0895    0.0000 CT        1 <0>        0.00000
     23 C19         4.2982   -2.4322    0.0000 CM        1 <0>        0.00000
     24 C20         3.5230   -1.9846    0.0000 C         1 <0>        0.00000
     25 C21         9.4583    0.5222    0.0000 C         1 <0>        0.00000
     26 C22         7.5298    1.9454    0.0000 C2        1 <0>        0.00000
     27 C23        10.1266    1.0059    0.0000 CT        1 <0>        0.00000
     28 H1          7.3262   -1.3575    0.0000 HC        1 <0>        0.00000
     29 H2          7.1159   -1.4392    0.0000 HC        1 <0>        0.00000
     30 H3          6.3989   -0.3712    0.0000 HC        1 <0>        0.00000
     31 H4          5.0893   -0.4595    0.0000 HC        1 <0>        0.00000
     32 H5          2.0940   -1.9791    0.0000 HO        1 <0>        0.00000
     33 H6          6.5418    0.5363    0.0000 HC        1 <0>        0.00000
     34 H7          6.5418    0.5363    0.0000 HC        1 <0>        0.00000
     35 H8          8.0369   -0.9526    0.0000 HC        1 <0>        0.00000
     36 H9          8.0369   -0.9526    0.0000 HC        1 <0>        0.00000
     37 H10         5.8274    0.1238    0.0000 HC        1 <0>        0.00000
     38 H11         5.8274    0.1238    0.0000 HC        1 <0>        0.00000
     39 H12         8.5184   -0.2887    0.0000 HC        1 <0>        0.00000
     40 H13         8.5184   -0.2887    0.0000 HC        1 <0>        0.00000
     41 H14         6.5550   -1.9729    0.0000 HC        1 <0>        0.00000
     42 H15         6.5550   -1.9729    0.0000 HC        1 <0>        0.00000
     43 H16         7.2563    0.9489    0.0000 HC        1 <0>        0.00000
     44 H17         7.2563    0.9489    0.0000 HC        1 <0>        0.00000
     45 H18         5.8142   -2.4083    0.0000 HC        1 <0>        0.00000
     46 H19         5.8142   -2.4083    0.0000 HC        1 <0>        0.00000
     47 H20         4.3119   -0.6539    0.0000 HC        1 <0>        0.00000
     48 H21         4.3119   -0.6539    0.0000 HC        1 <0>        0.00000
     49 H22         6.5418    1.3614    0.0000 HC        1 <0>        0.00000
     50 H23         6.5418    1.3614    0.0000 HC        1 <0>        0.00000
     51 H24         6.5418    1.3614    0.0000 HC        1 <0>        0.00000
     52 H25         3.5298   -1.0895    0.0000 HC        1 <0>        0.00000
     53 H26         3.5298   -1.0895    0.0000 HC        1 <0>        0.00000
     54 H27         4.2982   -2.4322    0.0000 HA        1 <0>        0.00000
     55 H28         7.5298    1.9454    0.0000 HC        1 <0>        0.00000
     56 H29        10.1266    1.0059    0.0000 HC        1 <0>        0.00000
     57 H30        10.1266    1.0059    0.0000 HC        1 <0>        0.00000
     58 H31        10.1266    1.0059    0.0000 HC        1 <0>        0.00000
@<TRIPOS>BOND
     1    1    9 1
     2    1   25 1
     3    2   25 2
     4    3    4 1
     5    4   24 2
     6    5    6 1
     7    5    9 1
     8    5   10 1
     9    5   16 1
    10    6    7 1
    11    6   11 1
    12    6   28 1
    13    7    8 1
    14    7   15 1
    15    7   29 1
    16    8   12 1
    17    8   14 1
    18    8   30 1
    19    9   13 1
    20    9   20 1
    21   10   12 1
    22   11   13 1
    23   14   18 1
    24   14   19 1
    25   14   31 1
    26   15   17 1
    27   16   21 1
    28   17   18 1
    29   18   23 2
    30   19   22 1
    31   20   26 3
    32   22   24 1
    33   23   24 1
    34   25   27 1
    35    3   32 1
    36   10   33 1
    37   10   34 1
    38   11   35 1
    39   11   36 1
    40   12   37 1
    41   12   38 1
    42   13   39 1
    43   13   40 1
    44   15   41 1
    45   15   42 1
    46   16   43 1
    47   16   44 1
    48   17   45 1
    49   17   46 1
    50   19   47 1
    51   19   48 1
    52   21   49 1
    53   21   50 1
    54   21   51 1
    55   22   52 1
    56   22   53 1
    57   23   54 1
    58   26   55 1
    59   27   56 1
    60   27   57 1
    61   27   58 1
@<TRIPOS>SUBSTRUCTURE
     1 <0>         1 GROUP 0 A     ****
@<TRIPOS>MOLECULE
MiniDrugBank_166
   60    64     1     0     0
SMALL
NO_CHARGES

@<TRIPOS>ATOM
      1 O1          0.2122    0.6611    0.0000 OH        1 <0>        0.00000
      2 O2          0.0407   -0.1459    0.0000 OS        1 <0>        0.00000
      3 C1          0.6538   -0.6979    0.0000 CT        1 <0>        0.00000
      4 C2          0.0407   -1.2500    0.0000 CT        1 <0>        0.00000
      5 C3         -0.7439   -0.9950    0.0000 CA        1 <0>        0.00000
      6 C4         -1.3570   -1.5471    0.0000 CA        1 <0>        0.00000
      7 C5         -2.1416   -1.2921    0.0000 CA        1 <0>        0.00000
      8 C6         -2.3132   -0.4852    0.0000 CA        1 <0>        0.00000
      9 O3         -3.0978   -0.2302    0.0000 OH        1 <0>        0.00000
     10 C7         -1.7001    0.0669    0.0000 CA        1 <0>        0.00000
     11 C8         -0.9154   -0.1881    0.0000 CA        1 <0>        0.00000
     12 N1          1.1387   -0.0305    0.0000 NB        1 <0>        0.00000
     13 C9          1.9233   -0.2854    0.0000 CR        1 <0>        0.00000
     14 C10         2.6378    0.1271    0.0000 CT        1 <0>        0.00000
     15 C11         2.6378    0.9521    0.0000 CT        1 <0>        0.00000
     16 C12         3.3523    1.3646    0.0000 CT        1 <0>        0.00000
     17 C13         3.4385    2.1850    0.0000 CT        1 <0>        0.00000
     18 C14         4.2455    2.3566    0.0000 CT        1 <0>        0.00000
     19 C15         4.6580    1.6421    0.0000 CT        1 <0>        0.00000
     20 C16         4.1060    1.0290    0.0000 CT        1 <0>        0.00000
     21 N2          3.3523   -0.2854    0.0000 N         1 <0>        0.00000
     22 C17         3.3523   -1.1104    0.0000 CM        1 <0>        0.00000
     23 C18         2.6378   -1.5229    0.0000 CM        1 <0>        0.00000
     24 N3          1.9233   -1.1104    0.0000 N         1 <0>        0.00000
     25 C19         1.1387   -1.3654    0.0000 C         1 <0>        0.00000
     26 O4          0.8838   -2.1500    0.0000 O         1 <0>        0.00000
     27 C20         4.0668   -1.5229    0.0000 CA        1 <0>        0.00000
     28 C21         4.7812   -1.1104    0.0000 CA        1 <0>        0.00000
     29 C22         5.4957   -1.5229    0.0000 CA        1 <0>        0.00000
     30 C23         5.4957   -2.3479    0.0000 CA        1 <0>        0.00000
     31 O5          6.2102   -2.7604    0.0000 OH        1 <0>        0.00000
     32 C24         4.7812   -2.7604    0.0000 CA        1 <0>        0.00000
     33 C25         4.0668   -2.3479    0.0000 CA        1 <0>        0.00000
     34 H1          0.2122    0.6611    0.0000 HO        1 <0>        0.00000
     35 H2          0.0407   -1.2500    0.0000 HC        1 <0>        0.00000
     36 H3          0.0407   -1.2500    0.0000 HC        1 <0>        0.00000
     37 H4         -1.3570   -1.5471    0.0000 HA        1 <0>        0.00000
     38 H5         -2.1416   -1.2921    0.0000 HA        1 <0>        0.00000
     39 H6         -3.0978   -0.2302    0.0000 HO        1 <0>        0.00000
     40 H7         -1.7001    0.0669    0.0000 HA        1 <0>        0.00000
     41 H8         -0.9154   -0.1881    0.0000 HA        1 <0>        0.00000
     42 H9          2.6378    0.1271    0.0000 H1        1 <0>        0.00000
     43 H10         2.6378    0.9521    0.0000 HC        1 <0>        0.00000
     44 H11         2.6378    0.9521    0.0000 HC        1 <0>        0.00000
     45 H12         3.3523    1.3646    0.0000 HC        1 <0>        0.00000
     46 H13         3.4385    2.1850    0.0000 HC        1 <0>        0.00000
     47 H14         3.4385    2.1850    0.0000 HC        1 <0>        0.00000
     48 H15         4.2455    2.3566    0.0000 HC        1 <0>        0.00000
     49 H16         4.2455    2.3566    0.0000 HC        1 <0>        0.00000
     50 H17         4.6580    1.6421    0.0000 HC        1 <0>        0.00000
     51 H18         4.6580    1.6421    0.0000 HC        1 <0>        0.00000
     52 H19         4.1060    1.0290    0.0000 HC        1 <0>        0.00000
     53 H20         4.1060    1.0290    0.0000 HC        1 <0>        0.00000
     54 H21         3.3523   -0.2854    0.0000 H         1 <0>        0.00000
     55 H22         2.6378   -1.5229    0.0000 H4        1 <0>        0.00000
     56 H23         4.7812   -1.1104    0.0000 HA        1 <0>        0.00000
     57 H24         5.4957   -1.5229    0.0000 HA        1 <0>        0.00000
     58 H25         6.2102   -2.7604    0.0000 HO        1 <0>        0.00000
     59 H26         4.7812   -2.7604    0.0000 HA        1 <0>        0.00000
     60 H27         4.0668   -2.3479    0.0000 HA        1 <0>        0.00000
@<TRIPOS>BOND
     1    1    2 1
     2    2    3 1
     3    3    4 1
     4    4    5 1
     5    5    6 ar
     6    6    7 ar
     7    7    8 ar
     8    8    9 1
     9    8   10 ar
    10   10   11 ar
    11    5   11 ar
    12    3   12 1
    13   12   13 2
    14   13   14 1
    15   14   15 1
    16   15   16 1
    17   16   17 1
    18   17   18 1
    19   18   19 1
    20   19   20 1
    21   16   20 1
    22   14   21 1
    23   21   22 1
    24   22   23 2
    25   23   24 1
    26   13   24 1
    27   24   25 am
    28    3   25 1
    29   25   26 2
    30   22   27 1
    31   27   28 ar
    32   28   29 ar
    33   29   30 ar
    34   30   31 1
    35   30   32 ar
    36   32   33 ar
    37   27   33 ar
    38    1   34 1
    39    4   35 1
    40    4   36 1
    41    6   37 1
    42    7   38 1
    43    9   39 1
    44   10   40 1
    45   11   41 1
    46   14   42 1
    47   15   43 1
    48   15   44 1
    49   16   45 1
    50   17   46 1
    51   17   47 1
    52   18   48 1
    53   18   49 1
    54   19   50 1
    55   19   51 1
    56   20   52 1
    57   20   53 1
    58   21   54 1
    59   23   55 1
    60   28   56 1
    61   29   57 1
    62   31   58 1
    63   32   59 1
    64   33   60 1
@<TRIPOS>SUBSTRUCTURE
     1 <0>         1 GROUP 0 A     ****
@<TRIPOS>MOLECULE
MiniDrugBank_167
   64    68     1     0     0
SMALL
NO_CHARGES

@<TRIPOS>ATOM
      1 C1          0.8772   -0.3633    0.0000 CT        1 <0>        0.00000
      2 N1          0.8772   -1.1884    0.0000 N         1 <0>        0.00000
      3 C2          1.5787   -1.6011    0.0000 CM        1 <0>        0.00000
      4 C3          2.2800   -1.1884    0.0000 CM        1 <0>        0.00000
      5 C4          2.2800   -0.3633    0.0000 CT        1 <0>        0.00000
      6 S1          1.5787    0.0492    0.0000 S         1 <0>        0.00000
      7 C5          0.0519   -0.3633    0.0000 CT        1 <0>        0.00000
      8 C6          0.0519   -1.1884    0.0000 C         1 <0>        0.00000
      9 N2         -0.6906    0.0492    0.0000 N         1 <0>        0.00000
     10 C7         -1.3921   -0.3633    0.0000 C         1 <0>        0.00000
     11 O1         -1.3921   -1.1884    0.0000 O         1 <0>        0.00000
     12 O2         -0.6906   -1.6011    0.0000 O         1 <0>        0.00000
     13 C8         -2.0935    0.0492    0.0000 C         1 <0>        0.00000
     14 S2          3.0227   -1.6011    0.0000 S         1 <0>        0.00000
     15 C9         -2.8362   -0.3633    0.0000 CR        1 <0>        0.00000
     16 H1          0.8772    0.4619    0.0000 H2        1 <0>        0.00000
     17 N3         -3.4551    0.1318    0.0000 NB        1 <0>        0.00000
     18 S3         -4.1565   -0.3220    0.0000 S         1 <0>        0.00000
     19 C10        -3.9089   -1.1472    0.0000 CR        1 <0>        0.00000
     20 N4         -3.0838   -1.1472    0.0000 NB        1 <0>        0.00000
     21 N5         -2.0935    0.8745    0.0000 NB        1 <0>        0.00000
     22 C11         1.5787   -2.4263    0.0000 C         1 <0>        0.00000
     23 O3          2.2800   -2.8389    0.0000 O2        1 <0>        0.00000
     24 O4          0.8359   -2.8389    0.0000 O2        1 <0>        0.00000
     25 N6         -4.4042   -1.8073    0.0000 N2        1 <0>        0.00000
     26 O5         -1.3921    1.2871    0.0000 OS        1 <0>        0.00000
     27 C12        -0.6741    0.8803    0.0000 CT        1 <0>        0.00000
     28 C13         0.0222    1.2900    0.0000 CT        1 <0>        0.00000
     29 P1         -5.2293   -1.8073    0.0000 P         1 <0>        0.00000
     30 O6         -6.0546   -1.8073    0.0000 OH        1 <0>        0.00000
     31 O7         -5.2293   -0.9821    0.0000 OH        1 <0>        0.00000
     32 O8         -5.2293   -2.6325    0.0000 O         1 <0>        0.00000
     33 C14         3.7276   -1.1785    0.0000 CR        1 <0>        0.00000
     34 S4          4.4811   -1.4993    0.0000 S         1 <0>        0.00000
     35 C15         5.0190   -0.8817    0.0000 CW        1 <0>        0.00000
     36 C16         4.5979   -0.1794    0.0000 CC        1 <0>        0.00000
     37 N7          3.7998   -0.3629    0.0000 NB        1 <0>        0.00000
     38 C17         4.9132    0.5614    0.0000 CA        1 <0>        0.00000
     39 C18         5.7315    0.6611    0.0000 CA        1 <0>        0.00000
     40 C19         6.0546    1.4203    0.0000 CA        1 <0>        0.00000
     41 N8          5.5586    2.0795    0.0000 NC        1 <0>        0.00000
     42 C20         4.7403    1.9798    0.0000 CA        1 <0>        0.00000
     43 C21         4.4174    1.2207    0.0000 CA        1 <0>        0.00000
     44 C22         5.8817    2.8389    0.0000 CT        1 <0>        0.00000
     45 H2          2.2800   -0.3633    0.0000 H1        1 <0>        0.00000
     46 H3          2.2800   -0.3633    0.0000 H1        1 <0>        0.00000
     47 H4          0.0519   -0.3633    0.0000 H1        1 <0>        0.00000
     48 H5         -0.6906    0.0492    0.0000 H         1 <0>        0.00000
     49 H6         -4.4042   -1.8073    0.0000 H         1 <0>        0.00000
     50 H7         -0.6741    0.8803    0.0000 H1        1 <0>        0.00000
     51 H8         -0.6741    0.8803    0.0000 H1        1 <0>        0.00000
     52 H9          0.0222    1.2900    0.0000 HC        1 <0>        0.00000
     53 H10         0.0222    1.2900    0.0000 HC        1 <0>        0.00000
     54 H11         0.0222    1.2900    0.0000 HC        1 <0>        0.00000
     55 H12        -6.0546   -1.8073    0.0000 HO        1 <0>        0.00000
     56 H13        -5.2293   -0.9821    0.0000 HO        1 <0>        0.00000
     57 H14         5.0190   -0.8817    0.0000 H4        1 <0>        0.00000
     58 H15         5.7315    0.6611    0.0000 HA        1 <0>        0.00000
     59 H16         6.0546    1.4203    0.0000 H4        1 <0>        0.00000
     60 H17         4.7403    1.9798    0.0000 H4        1 <0>        0.00000
     61 H18         4.4174    1.2207    0.0000 HA        1 <0>        0.00000
     62 H19         5.8817    2.8389    0.0000 HP        1 <0>        0.00000
     63 H20         5.8817    2.8389    0.0000 HP        1 <0>        0.00000
     64 H21         5.8817    2.8389    0.0000 HP        1 <0>        0.00000
@<TRIPOS>BOND
     1    1    2 1
     2    2    3 1
     3    3    4 2
     4    4    5 1
     5    5    6 1
     6    1    6 1
     7    1    7 1
     8    7    8 1
     9    2    8 am
    10    7    9 1
    11    9   10 am
    12   10   11 2
    13    8   12 2
    14   10   13 1
    15    4   14 1
    16   13   15 1
    17    1   16 1
    18   15   17 2
    19   17   18 1
    20   18   19 1
    21   19   20 2
    22   15   20 1
    23   13   21 2
    24    3   22 1
    25   22   23 1
    26   22   24 2
    27   19   25 1
    28   21   26 1
    29   26   27 1
    30   27   28 1
    31   25   29 1
    32   29   30 1
    33   29   31 1
    34   29   32 2
    35   14   33 1
    36   33   34 1
    37   34   35 1
    38   35   36 2
    39   36   37 1
    40   33   37 2
    41   36   38 1
    42   38   39 ar
    43   39   40 ar
    44   40   41 ar
    45   41   42 ar
    46   42   43 ar
    47   38   43 ar
    48   41   44 1
    49    5   45 1
    50    5   46 1
    51    7   47 1
    52    9   48 1
    53   25   49 1
    54   27   50 1
    55   27   51 1
    56   28   52 1
    57   28   53 1
    58   28   54 1
    59   30   55 1
    60   31   56 1
    61   35   57 1
    62   39   58 1
    63   40   59 1
    64   42   60 1
    65   43   61 1
    66   44   62 1
    67   44   63 1
    68   44   64 1
@<TRIPOS>SUBSTRUCTURE
     1 <0>         1 GROUP 0 A     ****
@<TRIPOS>MOLECULE
MiniDrugBank_168
   40    41     1     0     0
SMALL
NO_CHARGES

 
@<TRIPOS>ATOM
      1 C1         12.2919  -11.1782    0.0000 CA        1 <0>        0.00000
      2 C2         12.2919  -12.0032    0.0000 CA        1 <0>        0.00000
      3 C3         12.9931  -12.4156    0.0000 CA        1 <0>        0.00000
      4 C4         13.7356  -12.0032    0.0000 CA        1 <0>        0.00000
      5 C5         13.7356  -11.1782    0.0000 CA        1 <0>        0.00000
      6 C6         12.9931  -10.7657    0.0000 CA        1 <0>        0.00000
      7 C7         14.5605  -12.0032    0.0000 C         1 <0>        0.00000
      8 C8         13.7356  -13.4468    0.0000 CJ        1 <0>        0.00000
      9 C9         14.5605  -13.4468    0.0000 CJ        1 <0>        0.00000
     10 C10        14.1481  -12.7044    0.0000 CJ        1 <0>        0.00000
     11 C11        14.9730  -14.1481    0.0000 CT        1 <0>        0.00000
     12 O1         14.5605  -11.1782    0.0000 O         1 <0>        0.00000
     13 N1         15.3855  -12.0032    0.0000 N         1 <0>        0.00000
     14 C12        15.7979  -11.3019    0.0000 CT        1 <0>        0.00000
     15 C13        15.7979  -12.7044    0.0000 CT        1 <0>        0.00000
     16 C14        16.6229  -12.7044    0.0000 CT        1 <0>        0.00000
     17 C15        16.6229  -11.3019    0.0000 CT        1 <0>        0.00000
     18 N2         15.7979  -14.1481    0.0000 N3        1 <0>        0.00000
     19 H1         12.2919  -11.1782    0.0000 HA        1 <0>        0.00000
     20 H2         12.2919  -12.0032    0.0000 HA        1 <0>        0.00000
     21 H3         12.9931  -12.4156    0.0000 HA        1 <0>        0.00000
     22 H4         13.7356  -11.1782    0.0000 HA        1 <0>        0.00000
     23 H5         12.9931  -10.7657    0.0000 HA        1 <0>        0.00000
     24 H6         13.7356  -13.4468    0.0000 HC        1 <0>        0.00000
     25 H7         13.7356  -13.4468    0.0000 HC        1 <0>        0.00000
     26 H8         14.5605  -13.4468    0.0000 HC        1 <0>        0.00000
     27 H9         14.9730  -14.1481    0.0000 H1        1 <0>        0.00000
     28 H10        14.9730  -14.1481    0.0000 H1        1 <0>        0.00000
     29 H11        15.7979  -11.3019    0.0000 H1        1 <0>        0.00000
     30 H12        15.7979  -11.3019    0.0000 H1        1 <0>        0.00000
     31 H13        15.7979  -12.7044    0.0000 H1        1 <0>        0.00000
     32 H14        15.7979  -12.7044    0.0000 H1        1 <0>        0.00000
     33 H15        16.6229  -12.7044    0.0000 HC        1 <0>        0.00000
     34 H16        16.6229  -12.7044    0.0000 HC        1 <0>        0.00000
     35 H17        16.6229  -12.7044    0.0000 HC        1 <0>        0.00000
     36 H18        16.6229  -11.3019    0.0000 HC        1 <0>        0.00000
     37 H19        16.6229  -11.3019    0.0000 HC        1 <0>        0.00000
     38 H20        16.6229  -11.3019    0.0000 HC        1 <0>        0.00000
     39 H21        15.7979  -14.1481    0.0000 H         1 <0>        0.00000
     40 H22        15.7979  -14.1481    0.0000 H         1 <0>        0.00000
@<TRIPOS>BOND
     1    8   10 1
     2    9   10 1
     3    3    4 ar
     4    9   11 1
     5    4   10 1
     6    7   10 1
     7    4    5 ar
     8    7   12 2
     9    5    6 ar
    10    7   13 am
    11    1    6 ar
    12   13   14 1
    13   13   15 1
    14   15   16 1
    15    1    2 ar
    16   14   17 1
    17    2    3 ar
    18   11   18 1
    19    8    9 1
    20    1   19 1
    21    2   20 1
    22    3   21 1
    23    5   22 1
    24    6   23 1
    25    8   24 1
    26    8   25 1
    27    9   26 1
    28   11   27 1
    29   11   28 1
    30   14   29 1
    31   14   30 1
    32   15   31 1
    33   15   32 1
    34   16   33 1
    35   16   34 1
    36   16   35 1
    37   17   36 1
    38   17   37 1
    39   17   38 1
    40   18   39 1
    41   18   40 1
@<TRIPOS>SUBSTRUCTURE
     1 <0>         1 GROUP 0 A     ****
@<TRIPOS>MOLECULE
MiniDrugBank_169
   60    64     1     0     0
SMALL
NO_CHARGES

@<TRIPOS>ATOM
      1 S1          1.3140    4.4609    0.0000 S         1 <0>        0.00000
      2 O1         -3.2816   -1.6947    0.0000 O         1 <0>        0.00000
      3 O2         -0.5195   -2.5921    0.0000 O         1 <0>        0.00000
      4 N1         -1.8294   -1.9247    0.0000 N         1 <0>        0.00000
      5 N2          1.0590    2.3414    0.0000 N3        1 <0>        0.00000
      6 N3          0.8292    3.7935    0.0000 NB        1 <0>        0.00000
      7 N4          0.5492    0.7722    0.0000 N3        1 <0>        0.00000
      8 C1         -2.6141   -3.0046    0.0000 CT        1 <0>        0.00000
      9 C2         -1.8294   -3.2595    0.0000 CT        1 <0>        0.00000
     10 C3         -2.6141   -2.1796    0.0000 C         1 <0>        0.00000
     11 C4         -1.3445   -2.5921    0.0000 C         1 <0>        0.00000
     12 C5          1.3140    3.1260    0.0000 CR        1 <0>        0.00000
     13 C6          2.0987    3.3810    0.0000 CB        1 <0>        0.00000
     14 C7          2.0987    4.2060    0.0000 CB        1 <0>        0.00000
     15 C8         -3.2272   -3.5566    0.0000 CT        1 <0>        0.00000
     16 C9         -1.6579   -4.0665    0.0000 CT        1 <0>        0.00000
     17 C10        -1.5745   -1.1400    0.0000 CT        1 <0>        0.00000
     18 C11         2.8132    2.9685    0.0000 CA        1 <0>        0.00000
     19 C12         2.8132    4.6185    0.0000 CA        1 <0>        0.00000
     20 C13         1.6112    1.7283    0.0000 CT        1 <0>        0.00000
     21 C14         0.2521    2.1699    0.0000 CT        1 <0>        0.00000
     22 C15        -3.0557   -4.3636    0.0000 CT        1 <0>        0.00000
     23 C16        -2.2711   -4.6185    0.0000 CT        1 <0>        0.00000
     24 C17         3.5276    3.3810    0.0000 CA        1 <0>        0.00000
     25 C18         1.3562    0.9437    0.0000 CT        1 <0>        0.00000
     26 C19        -0.0028    1.3853    0.0000 CT        1 <0>        0.00000
     27 C20         3.5276    4.2060    0.0000 CA        1 <0>        0.00000
     28 C21        -0.7676   -0.9685    0.0000 CT        1 <0>        0.00000
     29 C22         0.2942   -0.0124    0.0000 CT        1 <0>        0.00000
     30 C23        -0.5126   -0.1839    0.0000 CT        1 <0>        0.00000
     31 H1         -0.8514   -3.4674    0.0000 HC        1 <0>        0.00000
     32 H2         -3.5276   -2.5978    0.0000 HC        1 <0>        0.00000
     33 H3         -3.2272   -3.5566    0.0000 HC        1 <0>        0.00000
     34 H4         -3.2272   -3.5566    0.0000 HC        1 <0>        0.00000
     35 H5         -1.6579   -4.0665    0.0000 HC        1 <0>        0.00000
     36 H6         -1.6579   -4.0665    0.0000 HC        1 <0>        0.00000
     37 H7         -1.5745   -1.1400    0.0000 H1        1 <0>        0.00000
     38 H8         -1.5745   -1.1400    0.0000 H1        1 <0>        0.00000
     39 H9          2.8132    2.9685    0.0000 HA        1 <0>        0.00000
     40 H10         2.8132    4.6185    0.0000 HA        1 <0>        0.00000
     41 H11         1.6112    1.7283    0.0000 H1        1 <0>        0.00000
     42 H12         1.6112    1.7283    0.0000 H1        1 <0>        0.00000
     43 H13         0.2521    2.1699    0.0000 H1        1 <0>        0.00000
     44 H14         0.2521    2.1699    0.0000 H1        1 <0>        0.00000
     45 H15        -3.0557   -4.3636    0.0000 HC        1 <0>        0.00000
     46 H16        -3.0557   -4.3636    0.0000 HC        1 <0>        0.00000
     47 H17        -2.2711   -4.6185    0.0000 HC        1 <0>        0.00000
     48 H18        -2.2711   -4.6185    0.0000 HC        1 <0>        0.00000
     49 H19         3.5276    3.3810    0.0000 HA        1 <0>        0.00000
     50 H20         1.3562    0.9437    0.0000 H1        1 <0>        0.00000
     51 H21         1.3562    0.9437    0.0000 H1        1 <0>        0.00000
     52 H22        -0.0028    1.3853    0.0000 H1        1 <0>        0.00000
     53 H23        -0.0028    1.3853    0.0000 H1        1 <0>        0.00000
     54 H24         3.5276    4.2060    0.0000 HA        1 <0>        0.00000
     55 H25        -0.7676   -0.9685    0.0000 HC        1 <0>        0.00000
     56 H26        -0.7676   -0.9685    0.0000 HC        1 <0>        0.00000
     57 H27         0.2942   -0.0124    0.0000 H1        1 <0>        0.00000
     58 H28         0.2942   -0.0124    0.0000 H1        1 <0>        0.00000
     59 H29        -0.5126   -0.1839    0.0000 HC        1 <0>        0.00000
     60 H30        -0.5126   -0.1839    0.0000 HC        1 <0>        0.00000
@<TRIPOS>BOND
     1    1    6 1
     2    1   14 1
     3    2   10 2
     4    3   11 2
     5    4   10 am
     6    4   11 am
     7    4   17 1
     8    5   12 1
     9    5   20 1
    10    5   21 1
    11    6   12 2
    12    7   25 1
    13    7   26 1
    14    7   29 1
    15    8    9 1
    16    8   10 1
    17    8   15 1
    18    9   11 1
    19    9   16 1
    20   12   13 1
    21   13   14 ar
    22   13   18 ar
    23   14   19 ar
    24   15   22 1
    25   16   23 1
    26   17   28 1
    27   18   24 ar
    28   19   27 ar
    29   20   25 1
    30   21   26 1
    31   22   23 1
    32   24   27 ar
    33   28   30 1
    34   29   30 1
    35    9   31 1
    36    8   32 1
    37   15   33 1
    38   15   34 1
    39   16   35 1
    40   16   36 1
    41   17   37 1
    42   17   38 1
    43   18   39 1
    44   19   40 1
    45   20   41 1
    46   20   42 1
    47   21   43 1
    48   21   44 1
    49   22   45 1
    50   22   46 1
    51   23   47 1
    52   23   48 1
    53   24   49 1
    54   25   50 1
    55   25   51 1
    56   26   52 1
    57   26   53 1
    58   27   54 1
    59   28   55 1
    60   28   56 1
    61   29   57 1
    62   29   58 1
    63   30   59 1
    64   30   60 1
@<TRIPOS>SUBSTRUCTURE
     1 <0>         1 GROUP 0 A     ****
@<TRIPOS>MOLECULE
OX1
   38    41     1     0     0
SMALL
NO_CHARGES

@<TRIPOS>ATOM
      1 C1          1.4506   -0.2323    0.0000 CA        1 <0>        0.00000
      2 C2          1.1270    1.3856    0.0000 CA        1 <0>        0.00000
      3 C3          0.6691    0.0321    0.0000 CA        1 <0>        0.00000
      4 C4          2.0703    0.3123    0.0000 CA        1 <0>        0.00000
      5 C5          1.9085    1.1213    0.0000 CA        1 <0>        0.00000
      6 C6          0.5073    0.8410    0.0000 CA        1 <0>        0.00000
      7 C7         -0.0794    0.3790    0.0000 CT        1 <0>        0.00000
      8 C8         -0.2221    1.1274    0.0000 CT        1 <0>        0.00000
      9 C9         -0.0917   -0.4459    0.0000 CT        1 <0>        0.00000
     10 O1          0.0603    1.4176    0.0000 OS        1 <0>        0.00000
     11 C10        -0.4890    0.3467    0.0000 CT        1 <0>        0.00000
     12 O2         -0.1844    2.0235    0.0000 OS        1 <0>        0.00000
     13 C11        -0.9187    0.0201    0.0000 CA        1 <0>        0.00000
     14 C12        -2.4494    0.6361    0.0000 CA        1 <0>        0.00000
     15 C13        -1.5681   -0.4887    0.0000 CA        1 <0>        0.00000
     16 C14        -1.0346    0.8369    0.0000 CA        1 <0>        0.00000
     17 C15        -1.7999    1.1449    0.0000 CA        1 <0>        0.00000
     18 C16        -2.3335   -0.1807    0.0000 CA        1 <0>        0.00000
     19 C17         0.6165   -0.8691    0.0000 CT        1 <0>        0.00000
     20 C18         0.6042   -1.6940    0.0000 C         1 <0>        0.00000
     21 O3          1.3124   -2.1171    0.0000 OH        1 <0>        0.00000
     22 O4         -0.1164   -2.0958    0.0000 O         1 <0>        0.00000
     23 H1          1.4506   -0.2323    0.0000 HA        1 <0>        0.00000
     24 H2          1.1270    1.3856    0.0000 HA        1 <0>        0.00000
     25 H3          2.0703    0.3123    0.0000 HA        1 <0>        0.00000
     26 H4          1.9085    1.1213    0.0000 HA        1 <0>        0.00000
     27 H5         -0.0917   -0.4459    0.0000 HC        1 <0>        0.00000
     28 H6         -0.0917   -0.4459    0.0000 HC        1 <0>        0.00000
     29 H7         -0.4890    0.3467    0.0000 HC        1 <0>        0.00000
     30 H8         -0.4890    0.3467    0.0000 HC        1 <0>        0.00000
     31 H9         -0.4890    0.3467    0.0000 HC        1 <0>        0.00000
     32 H10        -2.4494    0.6361    0.0000 HA        1 <0>        0.00000
     33 H11        -1.5681   -0.4887    0.0000 HA        1 <0>        0.00000
     34 H12        -1.7999    1.1449    0.0000 HA        1 <0>        0.00000
     35 H13        -2.3335   -0.1807    0.0000 HA        1 <0>        0.00000
     36 H14         0.6165   -0.8691    0.0000 HC        1 <0>        0.00000
     37 H15         0.6165   -0.8691    0.0000 HC        1 <0>        0.00000
     38 H16         1.3124   -2.1171    0.0000 HO        1 <0>        0.00000
@<TRIPOS>BOND
     1    1    3 ar
     2    1    4 ar
     3    2    5 ar
     4    2    6 ar
     5    3    6 ar
     6    3    7 1
     7    4    5 ar
     8    6    8 1
     9    7    9 1
    10    7   10 1
    11    7   13 1
    12    8   11 1
    13    8   12 1
    14    8   16 1
    15    9   19 1
    16   10   12 1
    17   13   15 ar
    18   13   16 ar
    19   14   17 ar
    20   14   18 ar
    21   15   18 ar
    22   16   17 ar
    23   19   20 1
    24   20   21 1
    25   20   22 2
    26    1   23 1
    27    2   24 1
    28    4   25 1
    29    5   26 1
    30    9   27 1
    31    9   28 1
    32   11   29 1
    33   11   30 1
    34   11   31 1
    35   14   32 1
    36   15   33 1
    37   17   34 1
    38   18   35 1
    39   19   36 1
    40   19   37 1
    41   21   38 1
@<TRIPOS>SUBSTRUCTURE
     1 <0>         1 GROUP 0 A     ****
@<TRIPOS>MOLECULE
MiniDrugBank_171
   61    65     1     0     0
SMALL
NO_CHARGES

@<TRIPOS>ATOM
      1 C1         -3.2176    1.9800    0.0000 CB        1 <0>        0.00000
      2 C2         -3.2176    1.1550    0.0000 CB        1 <0>        0.00000
      3 C3         -3.9189    0.7425    0.0000 CA        1 <0>        0.00000
      4 C4         -4.6614    1.1550    0.0000 CA        1 <0>        0.00000
      5 C5         -4.6614    1.9800    0.0000 CA        1 <0>        0.00000
      6 N1         -3.9189    2.3926    0.0000 NC        1 <0>        0.00000
      7 C6         -2.5163    2.3926    0.0000 CA        1 <0>        0.00000
      8 C7         -1.7738    1.9800    0.0000 CA        1 <0>        0.00000
      9 C8         -1.7738    1.1550    0.0000 CA        1 <0>        0.00000
     10 C9         -2.5163    0.7425    0.0000 CA        1 <0>        0.00000
     11 O1         -1.0725    2.3926    0.0000 OS        1 <0>        0.00000
     12 C10        -0.3712    1.9800    0.0000 CT        1 <0>        0.00000
     13 O2         -1.0725    0.7425    0.0000 OS        1 <0>        0.00000
     14 C11        -0.3712    1.1550    0.0000 CT        1 <0>        0.00000
     15 O3         -3.9189   -0.0824    0.0000 OS        1 <0>        0.00000
     16 C12        -3.1763   -0.4950    0.0000 CA        1 <0>        0.00000
     17 C13        -3.1763   -1.3201    0.0000 CA        1 <0>        0.00000
     18 C14        -2.4750   -1.7326    0.0000 CA        1 <0>        0.00000
     19 C15        -1.7738   -1.3201    0.0000 CA        1 <0>        0.00000
     20 C16        -1.7738   -0.4537    0.0000 CA        1 <0>        0.00000
     21 C17        -2.4750   -0.0412    0.0000 CA        1 <0>        0.00000
     22 N2         -1.0313   -1.6913    0.0000 N         1 <0>        0.00000
     23 C18        -0.3300   -1.2788    0.0000 C         1 <0>        0.00000
     24 C19         0.4125   -1.6913    0.0000 CJ        1 <0>        0.00000
     25 O4         -0.3300   -0.4537    0.0000 O         1 <0>        0.00000
     26 C20         1.1138   -1.2375    0.0000 C         1 <0>        0.00000
     27 N3          1.8151   -1.6500    0.0000 N         1 <0>        0.00000
     28 O5          1.1138   -0.4125    0.0000 O         1 <0>        0.00000
     29 C21         2.5163   -1.2375    0.0000 CA        1 <0>        0.00000
     30 C22         3.2589   -1.6500    0.0000 CA        1 <0>        0.00000
     31 C23         3.9189   -1.1963    0.0000 CA        1 <0>        0.00000
     32 C24         3.9189   -0.3713    0.0000 CA        1 <0>        0.00000
     33 C25         3.2176    0.0000    0.0000 CA        1 <0>        0.00000
     34 C26         2.5163   -0.4125    0.0000 CA        1 <0>        0.00000
     35 F1          4.6615    0.0000    0.0000 F         1 <0>        0.00000
     36 C27         0.0000   -2.3926    0.0000 CJ        1 <0>        0.00000
     37 C28         0.8250   -2.3926    0.0000 CJ        1 <0>        0.00000
     38 H1         -4.6614    1.1550    0.0000 HA        1 <0>        0.00000
     39 H2         -4.6614    1.9800    0.0000 H4        1 <0>        0.00000
     40 H3         -2.5163    2.3926    0.0000 HA        1 <0>        0.00000
     41 H4         -2.5163    0.7425    0.0000 HA        1 <0>        0.00000
     42 H5         -0.3712    1.9800    0.0000 H1        1 <0>        0.00000
     43 H6         -0.3712    1.9800    0.0000 H1        1 <0>        0.00000
     44 H7         -0.3712    1.9800    0.0000 H1        1 <0>        0.00000
     45 H8         -0.3712    1.1550    0.0000 H1        1 <0>        0.00000
     46 H9         -0.3712    1.1550    0.0000 H1        1 <0>        0.00000
     47 H10        -0.3712    1.1550    0.0000 H1        1 <0>        0.00000
     48 H11        -3.1763   -1.3201    0.0000 HA        1 <0>        0.00000
     49 H12        -2.4750   -1.7326    0.0000 HA        1 <0>        0.00000
     50 H13        -1.7738   -0.4537    0.0000 HA        1 <0>        0.00000
     51 H14        -2.4750   -0.0412    0.0000 HA        1 <0>        0.00000
     52 H15        -1.0313   -1.6913    0.0000 H         1 <0>        0.00000
     53 H16         1.8151   -1.6500    0.0000 H         1 <0>        0.00000
     54 H17         3.2589   -1.6500    0.0000 HA        1 <0>        0.00000
     55 H18         3.9189   -1.1963    0.0000 HA        1 <0>        0.00000
     56 H19         3.2176    0.0000    0.0000 HA        1 <0>        0.00000
     57 H20         2.5163   -0.4125    0.0000 HA        1 <0>        0.00000
     58 H21         0.0000   -2.3926    0.0000 HC        1 <0>        0.00000
     59 H22         0.0000   -2.3926    0.0000 HC        1 <0>        0.00000
     60 H23         0.8250   -2.3926    0.0000 HC        1 <0>        0.00000
     61 H24         0.8250   -2.3926    0.0000 HC        1 <0>        0.00000
@<TRIPOS>BOND
     1    1    2 ar
     2    2    3 ar
     3    3    4 ar
     4    4    5 ar
     5    5    6 ar
     6    1    6 ar
     7    1    7 ar
     8    7    8 ar
     9    8    9 ar
    10    9   10 ar
    11    2   10 ar
    12    8   11 1
    13   11   12 1
    14    9   13 1
    15   13   14 1
    16    3   15 1
    17   15   16 1
    18   16   17 ar
    19   17   18 ar
    20   18   19 ar
    21   19   20 ar
    22   20   21 ar
    23   16   21 ar
    24   19   22 1
    25   22   23 am
    26   23   24 1
    27   23   25 2
    28   24   26 1
    29   26   27 am
    30   26   28 2
    31   27   29 1
    32   29   30 ar
    33   30   31 ar
    34   31   32 ar
    35   32   33 ar
    36   33   34 ar
    37   29   34 ar
    38   32   35 1
    39   36   37 1
    40   24   37 1
    41   24   36 1
    42    4   38 1
    43    5   39 1
    44    7   40 1
    45   10   41 1
    46   12   42 1
    47   12   43 1
    48   12   44 1
    49   14   45 1
    50   14   46 1
    51   14   47 1
    52   17   48 1
    53   18   49 1
    54   20   50 1
    55   21   51 1
    56   22   52 1
    57   27   53 1
    58   30   54 1
    59   31   55 1
    60   33   56 1
    61   34   57 1
    62   36   58 1
    63   36   59 1
    64   37   60 1
    65   37   61 1
@<TRIPOS>SUBSTRUCTURE
     1 <0>         1 GROUP 0 A     ****
@<TRIPOS>MOLECULE
1010
   28    28     1     0     0
SMALL
NO_CHARGES

@<TRIPOS>ATOM
      1 O1          1.6500   -1.6005    0.0000 OH        1 <0>        0.00000
      2 N1          3.0791    0.8745    0.0000 N3        1 <0>        0.00000
      3 C1          3.0791    1.6995    0.0000 CT        1 <0>        0.00000
      4 C2          3.0791    0.0495    0.0000 CA        1 <0>        0.00000
      5 C3          3.9041    0.8745    0.0000 CT        1 <0>        0.00000
      6 C4          2.2540    0.8745    0.0000 CT        1 <0>        0.00000
      7 C5          3.7935    2.1120    0.0000 CT        1 <0>        0.00000
      8 C6          2.3645   -0.3630    0.0000 CA        1 <0>        0.00000
      9 C7          3.7935   -0.3630    0.0000 CA        1 <0>        0.00000
     10 C8          2.3645   -1.1880    0.0000 CA        1 <0>        0.00000
     11 C9          3.7935   -1.1880    0.0000 CA        1 <0>        0.00000
     12 C10         3.0791   -1.6005    0.0000 CA        1 <0>        0.00000
     13 H1          1.6500   -1.6005    0.0000 HO        1 <0>        0.00000
     14 H2          3.0791    1.6995    0.0000 HP        1 <0>        0.00000
     15 H3          3.0791    1.6995    0.0000 HP        1 <0>        0.00000
     16 H4          3.9041    0.8745    0.0000 HP        1 <0>        0.00000
     17 H5          3.9041    0.8745    0.0000 HP        1 <0>        0.00000
     18 H6          3.9041    0.8745    0.0000 HP        1 <0>        0.00000
     19 H7          2.2540    0.8745    0.0000 HP        1 <0>        0.00000
     20 H8          2.2540    0.8745    0.0000 HP        1 <0>        0.00000
     21 H9          2.2540    0.8745    0.0000 HP        1 <0>        0.00000
     22 H10         3.7935    2.1120    0.0000 HC        1 <0>        0.00000
     23 H11         3.7935    2.1120    0.0000 HC        1 <0>        0.00000
     24 H12         3.7935    2.1120    0.0000 HC        1 <0>        0.00000
     25 H13         2.3645   -0.3630    0.0000 HA        1 <0>        0.00000
     26 H14         3.7935   -0.3630    0.0000 HA        1 <0>        0.00000
     27 H15         3.7935   -1.1880    0.0000 HA        1 <0>        0.00000
     28 H16         3.0791   -1.6005    0.0000 HA        1 <0>        0.00000
@<TRIPOS>BOND
     1    1   10 1
     2    2    3 1
     3    2    4 1
     4    2    5 1
     5    2    6 1
     6    3    7 1
     7    4    8 ar
     8    4    9 ar
     9    8   10 ar
    10    9   11 ar
    11   10   12 ar
    12   11   12 ar
    13    1   13 1
    14    3   14 1
    15    3   15 1
    16    5   16 1
    17    5   17 1
    18    5   18 1
    19    6   19 1
    20    6   20 1
    21    6   21 1
    22    7   22 1
    23    7   23 1
    24    7   24 1
    25    8   25 1
    26    9   26 1
    27   11   27 1
    28   12   28 1
@<TRIPOS>SUBSTRUCTURE
     1 <0>         1 GROUP 0 A     ****
@<TRIPOS>MOLECULE
MiniDrugBank_173
   10     9     1     0     0
SMALL
NO_CHARGES

@<TRIPOS>ATOM
      1 C1          2.0625   -0.7145    0.0000 CT        1 <0>        0.00000
      2 C2          1.6500    0.0000    0.0000 CT        1 <0>        0.00000
      3 N1          0.8250    0.0000    0.0000 NL        1 <0>        0.00000
      4 C3          0.0000    0.0000    0.0000 C2        1 <0>        0.00000
      5 H1          2.0625   -0.7145    0.0000 HC        1 <0>        0.00000
      6 H2          2.0625   -0.7145    0.0000 HC        1 <0>        0.00000
      7 H3          2.0625   -0.7145    0.0000 HC        1 <0>        0.00000
      8 H4          1.6500    0.0000    0.0000 HP        1 <0>        0.00000
      9 H5          1.6500    0.0000    0.0000 HP        1 <0>        0.00000
     10 H6          0.0000    0.0000    0.0000 HC        1 <0>        0.00000
@<TRIPOS>BOND
     1    1    2 1
     2    2    3 1
     3    3    4 3
     4    1    5 1
     5    1    6 1
     6    1    7 1
     7    2    8 1
     8    2    9 1
     9    4   10 1
@<TRIPOS>SUBSTRUCTURE
     1 <0>         1 GROUP 0 A     ****
@<TRIPOS>MOLECULE
CB3
   58    60     1     0     0
SMALL
NO_CHARGES

@<TRIPOS>ATOM
      1 N1         -4.5072   -1.5584    0.0000 NA        1 <0>        0.00000
      2 C1         -5.2217   -1.1459    0.0000 CA        1 <0>        0.00000
      3 N2         -5.9361   -1.5584    0.0000 N2        1 <0>        0.00000
      4 N3         -5.2217   -0.3209    0.0000 NC        1 <0>        0.00000
      5 C2         -4.5072    0.0916    0.0000 C         1 <0>        0.00000
      6 O1         -4.5072    0.9166    0.0000 O         1 <0>        0.00000
      7 C3         -3.7927   -0.3209    0.0000 CB        1 <0>        0.00000
      8 C4         -3.0782    0.0916    0.0000 CA        1 <0>        0.00000
      9 C5         -2.3638   -0.3209    0.0000 CA        1 <0>        0.00000
     10 C6         -2.3638   -1.1459    0.0000 CA        1 <0>        0.00000
     11 C7         -3.0782   -1.5584    0.0000 CA        1 <0>        0.00000
     12 C8         -3.7927   -1.1459    0.0000 CB        1 <0>        0.00000
     13 C9         -1.6493    0.0916    0.0000 CT        1 <0>        0.00000
     14 N4         -0.9348   -0.3209    0.0000 N3        1 <0>        0.00000
     15 C10         1.2086    0.9166    0.0000 CA        1 <0>        0.00000
     16 C11         1.2086    0.0916    0.0000 CA        1 <0>        0.00000
     17 C12         0.4941   -0.3209    0.0000 CA        1 <0>        0.00000
     18 C13        -0.2204    0.0916    0.0000 CA        1 <0>        0.00000
     19 C14        -0.2204    0.9166    0.0000 CA        1 <0>        0.00000
     20 C15         0.4941    1.3291    0.0000 CA        1 <0>        0.00000
     21 C16         1.9231    1.3291    0.0000 C         1 <0>        0.00000
     22 O2          1.9231    2.1541    0.0000 O         1 <0>        0.00000
     23 N5          2.6375    0.9166    0.0000 N         1 <0>        0.00000
     24 C17         3.3520    1.3291    0.0000 CT        1 <0>        0.00000
     25 C18         4.0665    0.9166    0.0000 CT        1 <0>        0.00000
     26 C19         4.7809    1.3291    0.0000 CT        1 <0>        0.00000
     27 C20         5.4954    0.9166    0.0000 C         1 <0>        0.00000
     28 O3          6.2099    1.3291    0.0000 O         1 <0>        0.00000
     29 O4          5.4954    0.0916    0.0000 OH        1 <0>        0.00000
     30 C21         3.3520    2.1541    0.0000 C         1 <0>        0.00000
     31 O5          4.0665    2.5666    0.0000 O         1 <0>        0.00000
     32 O6          2.6375    2.5666    0.0000 OH        1 <0>        0.00000
     33 C22        -0.9348   -1.1459    0.0000 CT        1 <0>        0.00000
     34 C23        -1.6493   -1.5584    0.0000 C2        1 <0>        0.00000
     35 C24        -2.3638   -1.9709    0.0000 C2        1 <0>        0.00000
     36 H1          3.3520    0.7451    0.0000 H1        1 <0>        0.00000
     37 H2         -4.5072   -1.5584    0.0000 H         1 <0>        0.00000
     38 H3         -5.9361   -1.5584    0.0000 H         1 <0>        0.00000
     39 H4         -5.9361   -1.5584    0.0000 H         1 <0>        0.00000
     40 H5         -3.0782    0.0916    0.0000 HA        1 <0>        0.00000
     41 H6         -2.3638   -1.1459    0.0000 HA        1 <0>        0.00000
     42 H7         -3.0782   -1.5584    0.0000 HA        1 <0>        0.00000
     43 H8         -1.6493    0.0916    0.0000 H1        1 <0>        0.00000
     44 H9         -1.6493    0.0916    0.0000 H1        1 <0>        0.00000
     45 H10         1.2086    0.0916    0.0000 HA        1 <0>        0.00000
     46 H11         0.4941   -0.3209    0.0000 HA        1 <0>        0.00000
     47 H12        -0.2204    0.9166    0.0000 HA        1 <0>        0.00000
     48 H13         0.4941    1.3291    0.0000 HA        1 <0>        0.00000
     49 H14         2.6375    0.9166    0.0000 H         1 <0>        0.00000
     50 H15         4.0665    0.9166    0.0000 HC        1 <0>        0.00000
     51 H16         4.0665    0.9166    0.0000 HC        1 <0>        0.00000
     52 H17         4.7809    1.3291    0.0000 HC        1 <0>        0.00000
     53 H18         4.7809    1.3291    0.0000 HC        1 <0>        0.00000
     54 H19         5.4954    0.0916    0.0000 HO        1 <0>        0.00000
     55 H20         2.6375    2.5666    0.0000 HO        1 <0>        0.00000
     56 H21        -0.9348   -1.1459    0.0000 H1        1 <0>        0.00000
     57 H22        -0.9348   -1.1459    0.0000 H1        1 <0>        0.00000
     58 H23        -2.3638   -1.9709    0.0000 HC        1 <0>        0.00000
@<TRIPOS>BOND
     1    1    2 1
     2    1   12 1
     3    2    3 1
     4    2    4 2
     5    4    5 1
     6    5    6 2
     7    5    7 1
     8    7    8 ar
     9    7   12 ar
    10    8    9 ar
    11    9   10 ar
    12    9   13 1
    13   10   11 ar
    14   11   12 ar
    15   13   14 1
    16   14   18 1
    17   14   33 1
    18   15   16 ar
    19   15   20 ar
    20   15   21 1
    21   16   17 ar
    22   17   18 ar
    23   18   19 ar
    24   19   20 ar
    25   21   22 2
    26   21   23 am
    27   23   24 1
    28   24   25 1
    29   24   30 1
    30   24   36 1
    31   25   26 1
    32   26   27 1
    33   27   28 2
    34   27   29 1
    35   30   31 2
    36   30   32 1
    37   33   34 1
    38   34   35 3
    39    1   37 1
    40    3   38 1
    41    3   39 1
    42    8   40 1
    43   10   41 1
    44   11   42 1
    45   13   43 1
    46   13   44 1
    47   16   45 1
    48   17   46 1
    49   19   47 1
    50   20   48 1
    51   23   49 1
    52   25   50 1
    53   25   51 1
    54   26   52 1
    55   26   53 1
    56   29   54 1
    57   32   55 1
    58   33   56 1
    59   33   57 1
    60   35   58 1
@<TRIPOS>SUBSTRUCTURE
     1 <0>         1 GROUP 0 A     ****
@<TRIPOS>MOLECULE
MiniDrugBank_175
   30    29     1     0     0
SMALL
NO_CHARGES

@<TRIPOS>ATOM
      1 N1          7.2849    3.3809    0.0000 N3        1 <0>        0.00000
      2 C1          7.2849    2.5559    0.0000 CT        1 <0>        0.00000
      3 C2          6.5704    2.1434    0.0000 CT        1 <0>        0.00000
      4 C3          5.8559    2.5559    0.0000 CT        1 <0>        0.00000
      5 C4          5.1414    2.1434    0.0000 CT        1 <0>        0.00000
      6 C5          4.4270    2.5559    0.0000 CT        1 <0>        0.00000
      7 N2          3.7125    2.1434    0.0000 N         1 <0>        0.00000
      8 C6          2.9980    2.5559    0.0000 C         1 <0>        0.00000
      9 N3          2.2836    2.1434    0.0000 N3        1 <0>        0.00000
     10 N4          2.9980    3.3809    0.0000 NB        1 <0>        0.00000
     11 C7          7.9993    2.1434    0.0000 C         1 <0>        0.00000
     12 O1          8.7138    2.5559    0.0000 OH        1 <0>        0.00000
     13 O2          7.9993    1.3184    0.0000 O         1 <0>        0.00000
     14 H1          7.2849    3.3809    0.0000 H         1 <0>        0.00000
     15 H2          7.2849    3.3809    0.0000 H         1 <0>        0.00000
     16 H3          7.2849    2.5559    0.0000 H1        1 <0>        0.00000
     17 H4          6.5704    2.1434    0.0000 HC        1 <0>        0.00000
     18 H5          6.5704    2.1434    0.0000 HC        1 <0>        0.00000
     19 H6          5.8559    2.5559    0.0000 HC        1 <0>        0.00000
     20 H7          5.8559    2.5559    0.0000 HC        1 <0>        0.00000
     21 H8          5.1414    2.1434    0.0000 HC        1 <0>        0.00000
     22 H9          5.1414    2.1434    0.0000 HC        1 <0>        0.00000
     23 H10         4.4270    2.5559    0.0000 H1        1 <0>        0.00000
     24 H11         4.4270    2.5559    0.0000 H1        1 <0>        0.00000
     25 H12         3.7125    2.1434    0.0000 H         1 <0>        0.00000
     26 H13         2.2836    2.1434    0.0000 H         1 <0>        0.00000
     27 H14         2.2836    2.1434    0.0000 H         1 <0>        0.00000
     28 H15         2.2836    2.1434    0.0000 H         1 <0>        0.00000
     29 H16         2.9980    3.3809    0.0000 H         1 <0>        0.00000
     30 H17         8.7138    2.5559    0.0000 HO        1 <0>        0.00000
@<TRIPOS>BOND
     1    1    2 1
     2    2    3 1
     3    3    4 1
     4    4    5 1
     5    5    6 1
     6    6    7 1
     7    7    8 1
     8    8    9 1
     9    8   10 2
    10    2   11 1
    11   11   12 1
    12   11   13 2
    13    1   14 1
    14    1   15 1
    15    2   16 1
    16    3   17 1
    17    3   18 1
    18    4   19 1
    19    4   20 1
    20    5   21 1
    21    5   22 1
    22    6   23 1
    23    6   24 1
    24    7   25 1
    25    9   26 1
    26    9   27 1
    27    9   28 1
    28   10   29 1
    29   12   30 1
@<TRIPOS>SUBSTRUCTURE
     1 <0>         1 GROUP 0 A     ****
@<TRIPOS>MOLECULE
4575
   59    63     1     0     0
SMALL
NO_CHARGES

@<TRIPOS>ATOM
      1 O1          8.6440    1.5551    0.0000 OH        1 <0>        0.00000
      2 O2          3.6676   -1.9997    0.0000 OS        1 <0>        0.00000
      3 C1          8.1169    0.5186    0.0000 CT        1 <0>        0.00000
      4 C2          8.1169   -0.3064    0.0000 CT        1 <0>        0.00000
      5 C3          7.4024   -0.7189    0.0000 CT        1 <0>        0.00000
      6 C4          8.8976    0.7700    0.0000 CT        1 <0>        0.00000
      7 C5          6.6880   -0.3064    0.0000 CT        1 <0>        0.00000
      8 C6          7.4024    0.9311    0.0000 CT        1 <0>        0.00000
      9 C7          8.8976   -0.5579    0.0000 CT        1 <0>        0.00000
     10 C8          6.6880    0.5186    0.0000 CT        1 <0>        0.00000
     11 C9          9.3791    0.1061    0.0000 CT        1 <0>        0.00000
     12 C10         7.4157   -1.5783    0.0000 CT        1 <0>        0.00000
     13 C11         8.1169    1.3436    0.0000 CT        1 <0>        0.00000
     14 C12         5.9372   -0.7246    0.0000 CA        1 <0>        0.00000
     15 C13         6.6748   -2.0136    0.0000 CT        1 <0>        0.00000
     16 C14         5.9306   -1.5839    0.0000 CA        1 <0>        0.00000
     17 C15         9.5659    1.2538    0.0000 C2        1 <0>        0.00000
     18 C16         5.1726   -0.2592    0.0000 CA        1 <0>        0.00000
     19 C17         5.1588   -2.0375    0.0000 CA        1 <0>        0.00000
     20 C18         4.3906   -0.6948    0.0000 CA        1 <0>        0.00000
     21 C19         4.3836   -1.5899    0.0000 CA        1 <0>        0.00000
     22 C20        10.2341    1.7376    0.0000 C2        1 <0>        0.00000
     23 C21         2.9547   -1.5844    0.0000 CT        1 <0>        0.00000
     24 C22         2.8716   -0.7636    0.0000 CT        1 <0>        0.00000
     25 C23         2.1997   -1.9171    0.0000 CT        1 <0>        0.00000
     26 C24         2.0653   -0.5889    0.0000 CT        1 <0>        0.00000
     27 C25         1.6500   -1.3018    0.0000 CT        1 <0>        0.00000
     28 H1          8.1868   -0.9628    0.0000 HC        1 <0>        0.00000
     29 H2          7.9766   -1.0445    0.0000 HC        1 <0>        0.00000
     30 H3          7.2595    0.0236    0.0000 HC        1 <0>        0.00000
     31 H4          8.6440    1.5551    0.0000 HO        1 <0>        0.00000
     32 H5          7.4024    0.9311    0.0000 HC        1 <0>        0.00000
     33 H6          7.4024    0.9311    0.0000 HC        1 <0>        0.00000
     34 H7          8.8976   -0.5579    0.0000 HC        1 <0>        0.00000
     35 H8          8.8976   -0.5579    0.0000 HC        1 <0>        0.00000
     36 H9          6.6880    0.5186    0.0000 HC        1 <0>        0.00000
     37 H10         6.6880    0.5186    0.0000 HC        1 <0>        0.00000
     38 H11         9.3791    0.1061    0.0000 HC        1 <0>        0.00000
     39 H12         9.3791    0.1061    0.0000 HC        1 <0>        0.00000
     40 H13         7.4157   -1.5783    0.0000 HC        1 <0>        0.00000
     41 H14         7.4157   -1.5783    0.0000 HC        1 <0>        0.00000
     42 H15         8.1169    1.3436    0.0000 HC        1 <0>        0.00000
     43 H16         8.1169    1.3436    0.0000 HC        1 <0>        0.00000
     44 H17         8.1169    1.3436    0.0000 HC        1 <0>        0.00000
     45 H18         6.6748   -2.0136    0.0000 HC        1 <0>        0.00000
     46 H19         6.6748   -2.0136    0.0000 HC        1 <0>        0.00000
     47 H20         5.1726   -0.2592    0.0000 HA        1 <0>        0.00000
     48 H21         5.1588   -2.0375    0.0000 HA        1 <0>        0.00000
     49 H22         4.3906   -0.6948    0.0000 HA        1 <0>        0.00000
     50 H23        10.2341    1.7376    0.0000 HC        1 <0>        0.00000
     51 H24         2.9547   -1.5844    0.0000 H1        1 <0>        0.00000
     52 H25         2.8716   -0.7636    0.0000 HC        1 <0>        0.00000
     53 H26         2.8716   -0.7636    0.0000 HC        1 <0>        0.00000
     54 H27         2.1997   -1.9171    0.0000 HC        1 <0>        0.00000
     55 H28         2.1997   -1.9171    0.0000 HC        1 <0>        0.00000
     56 H29         2.0653   -0.5889    0.0000 HC        1 <0>        0.00000
     57 H30         2.0653   -0.5889    0.0000 HC        1 <0>        0.00000
     58 H31         1.6500   -1.3018    0.0000 HC        1 <0>        0.00000
     59 H32         1.6500   -1.3018    0.0000 HC        1 <0>        0.00000
@<TRIPOS>BOND
     1    1    6 1
     2    2   21 1
     3    2   23 1
     4    3    4 1
     5    3    6 1
     6    3    8 1
     7    3   13 1
     8    4    5 1
     9    4    9 1
    10    4   28 1
    11    5    7 1
    12    5   12 1
    13    5   29 1
    14    6   11 1
    15    6   17 1
    16    7   10 1
    17    7   14 1
    18    7   30 1
    19    8   10 1
    20    9   11 1
    21   12   15 1
    22   14   16 ar
    23   14   18 ar
    24   15   16 1
    25   16   19 ar
    26   17   22 3
    27   18   20 ar
    28   19   21 ar
    29   20   21 ar
    30   23   24 1
    31   23   25 1
    32   24   26 1
    33   25   27 1
    34   26   27 1
    35    1   31 1
    36    8   32 1
    37    8   33 1
    38    9   34 1
    39    9   35 1
    40   10   36 1
    41   10   37 1
    42   11   38 1
    43   11   39 1
    44   12   40 1
    45   12   41 1
    46   13   42 1
    47   13   43 1
    48   13   44 1
    49   15   45 1
    50   15   46 1
    51   18   47 1
    52   19   48 1
    53   20   49 1
    54   22   50 1
    55   23   51 1
    56   24   52 1
    57   24   53 1
    58   25   54 1
    59   25   55 1
    60   26   56 1
    61   26   57 1
    62   27   58 1
    63   27   59 1
@<TRIPOS>SUBSTRUCTURE
     1 <0>         1 GROUP 0 A     ****
@<TRIPOS>MOLECULE
MiniDrugBank_177
   36    38     1     0     0
SMALL
NO_CHARGES

@<TRIPOS>ATOM
      1 C1          5.5156    1.7457    0.0000 CT        1 <0>        0.00000
      2 C2          2.8579   -1.6500    0.0000 CT        1 <0>        0.00000
      3 C3         -0.7145   -0.4125    0.0000 CA        1 <0>        0.00000
      4 C4         -0.7145   -1.2375    0.0000 CA        1 <0>        0.00000
      5 C5          0.0000    0.0000    0.0000 CA        1 <0>        0.00000
      6 C6          0.0000   -1.6500    0.0000 CA        1 <0>        0.00000
      7 C7          4.3731    0.8205    0.0000 CW        1 <0>        0.00000
      8 C8          5.1800    0.9920    0.0000 CC        1 <0>        0.00000
      9 C9          0.7145   -0.4125    0.0000 CB        1 <0>        0.00000
     10 C10         0.7145   -1.2375    0.0000 CB        1 <0>        0.00000
     11 C11         4.2868   -0.0000    0.0000 C*        1 <0>        0.00000
     12 C12         2.1434   -0.4125    0.0000 CA        1 <0>        0.00000
     13 C13         1.4289   -0.0000    0.0000 CA        1 <0>        0.00000
     14 C14         2.8579   -0.0000    0.0000 C         1 <0>        0.00000
     15 N1          3.5724   -0.4125    0.0000 NB        1 <0>        0.00000
     16 N2          5.0405   -0.3356    0.0000 NA        1 <0>        0.00000
     17 N3          2.1434   -1.2375    0.0000 N*        1 <0>        0.00000
     18 O1          1.4289    0.8250    0.0000 OH        1 <0>        0.00000
     19 O2          2.8579    0.8250    0.0000 O         1 <0>        0.00000
     20 O3          1.0416   -2.3784    0.0000 O2        1 <0>        0.00000
     21 O4          1.8163   -2.3784    0.0000 O2        1 <0>        0.00000
     22 O5          5.5925    0.2775    0.0000 OS        1 <0>        0.00000
     23 S1          1.4289   -1.6500    0.0000 SO        1 <0>        0.00000
     24 H1          5.5156    1.7457    0.0000 HC        1 <0>        0.00000
     25 H2          5.5156    1.7457    0.0000 HC        1 <0>        0.00000
     26 H3          5.5156    1.7457    0.0000 HC        1 <0>        0.00000
     27 H4          2.8579   -1.6500    0.0000 H1        1 <0>        0.00000
     28 H5          2.8579   -1.6500    0.0000 H1        1 <0>        0.00000
     29 H6          2.8579   -1.6500    0.0000 H1        1 <0>        0.00000
     30 H7         -0.7145   -0.4125    0.0000 HA        1 <0>        0.00000
     31 H8         -0.7145   -1.2375    0.0000 HA        1 <0>        0.00000
     32 H9          0.0000    0.0000    0.0000 HA        1 <0>        0.00000
     33 H10         0.0000   -1.6500    0.0000 HA        1 <0>        0.00000
     34 H11         4.3731    0.8205    0.0000 HA        1 <0>        0.00000
     35 H12         5.0405   -0.3356    0.0000 H         1 <0>        0.00000
     36 H13         1.4289    0.8250    0.0000 HO        1 <0>        0.00000
@<TRIPOS>BOND
     1    3    4 ar
     2    3    5 ar
     3    4    6 ar
     4    1    8 1
     5    7    8 2
     6    5    9 ar
     7    6   10 ar
     8    9   10 ar
     9    7   11 1
    10    9   13 1
    11   12   13 2
    12   12   14 1
    13   11   15 2
    14   14   15 1
    15   11   16 1
    16    2   17 1
    17   12   17 1
    18   13   18 1
    19   14   19 2
    20    8   22 1
    21   16   22 1
    22   10   23 1
    23   17   23 1
    24   20   23 2
    25   21   23 2
    26    1   24 1
    27    1   25 1
    28    1   26 1
    29    2   27 1
    30    2   28 1
    31    2   29 1
    32    3   30 1
    33    4   31 1
    34    5   32 1
    35    6   33 1
    36    7   34 1
    37   16   35 1
    38   18   36 1
@<TRIPOS>SUBSTRUCTURE
     1 <0>         1 GROUP 0 A     ****
@<TRIPOS>MOLECULE
MiniDrugBank_178
   55    59     1     0     0
SMALL
NO_CHARGES

@<TRIPOS>ATOM
      1 O1         -1.0700   -2.0569    0.0000 OH        1 <0>        0.00000
      2 O2         -1.2415   -1.2500    0.0000 OS        1 <0>        0.00000
      3 C1         -0.6284   -0.6979    0.0000 CT        1 <0>        0.00000
      4 C2         -1.2415   -0.1459    0.0000 CT        1 <0>        0.00000
      5 C3         -2.0261   -0.4008    0.0000 CA        1 <0>        0.00000
      6 C4         -2.1977   -1.2078    0.0000 CA        1 <0>        0.00000
      7 C5         -2.9823   -1.4628    0.0000 CA        1 <0>        0.00000
      8 C6         -3.5954   -0.9107    0.0000 CA        1 <0>        0.00000
      9 O3         -4.3800   -1.1657    0.0000 OH        1 <0>        0.00000
     10 C7         -3.4239   -0.1038    0.0000 CA        1 <0>        0.00000
     11 C8         -2.6392    0.1512    0.0000 CA        1 <0>        0.00000
     12 N1         -0.1435   -1.3654    0.0000 NB        1 <0>        0.00000
     13 C9          0.6411   -1.1104    0.0000 CR        1 <0>        0.00000
     14 N2          0.6411   -0.2854    0.0000 N         1 <0>        0.00000
     15 C10         1.3556    0.1271    0.0000 CA        1 <0>        0.00000
     16 C11         2.0701   -0.2854    0.0000 CP        1 <0>        0.00000
     17 N3          2.0701   -1.1104    0.0000 NC        1 <0>        0.00000
     18 C12         1.3556   -1.5229    0.0000 CA        1 <0>        0.00000
     19 C13         1.3556   -2.3479    0.0000 CT        1 <0>        0.00000
     20 C14         0.6411   -2.7604    0.0000 CA        1 <0>        0.00000
     21 C15         0.6411   -3.5854    0.0000 CA        1 <0>        0.00000
     22 C16        -0.0734   -3.9979    0.0000 CA        1 <0>        0.00000
     23 C17        -0.7878   -3.5854    0.0000 CA        1 <0>        0.00000
     24 C18        -0.7878   -2.7604    0.0000 CA        1 <0>        0.00000
     25 C19        -0.0734   -2.3479    0.0000 CA        1 <0>        0.00000
     26 C20         2.7845    0.1271    0.0000 CP        1 <0>        0.00000
     27 C21         2.7845    0.9521    0.0000 CA        1 <0>        0.00000
     28 C22         3.4990    1.3646    0.0000 CA        1 <0>        0.00000
     29 C23         4.2135    0.9521    0.0000 CA        1 <0>        0.00000
     30 O4          4.9279    1.3646    0.0000 OH        1 <0>        0.00000
     31 C24         4.2135    0.1271    0.0000 CA        1 <0>        0.00000
     32 C25         3.4990   -0.2854    0.0000 CA        1 <0>        0.00000
     33 C26        -0.1435   -0.0305    0.0000 C         1 <0>        0.00000
     34 O5         -0.3984    0.7541    0.0000 O         1 <0>        0.00000
     35 H1         -1.0700   -2.0569    0.0000 HO        1 <0>        0.00000
     36 H2         -1.2415   -0.1459    0.0000 HC        1 <0>        0.00000
     37 H3         -1.2415   -0.1459    0.0000 HC        1 <0>        0.00000
     38 H4         -2.1977   -1.2078    0.0000 HA        1 <0>        0.00000
     39 H5         -2.9823   -1.4628    0.0000 HA        1 <0>        0.00000
     40 H6         -4.3800   -1.1657    0.0000 HO        1 <0>        0.00000
     41 H7         -3.4239   -0.1038    0.0000 HA        1 <0>        0.00000
     42 H8         -2.6392    0.1512    0.0000 HA        1 <0>        0.00000
     43 H9          1.3556    0.1271    0.0000 H4        1 <0>        0.00000
     44 H10         1.3556   -2.3479    0.0000 HC        1 <0>        0.00000
     45 H11         1.3556   -2.3479    0.0000 HC        1 <0>        0.00000
     46 H12         0.6411   -3.5854    0.0000 HA        1 <0>        0.00000
     47 H13        -0.0734   -3.9979    0.0000 HA        1 <0>        0.00000
     48 H14        -0.7878   -3.5854    0.0000 HA        1 <0>        0.00000
     49 H15        -0.7878   -2.7604    0.0000 HA        1 <0>        0.00000
     50 H16        -0.0734   -2.3479    0.0000 HA        1 <0>        0.00000
     51 H17         2.7845    0.9521    0.0000 HA        1 <0>        0.00000
     52 H18         3.4990    1.3646    0.0000 HA        1 <0>        0.00000
     53 H19         4.9279    1.3646    0.0000 HO        1 <0>        0.00000
     54 H20         4.2135    0.1271    0.0000 HA        1 <0>        0.00000
     55 H21         3.4990   -0.2854    0.0000 HA        1 <0>        0.00000
@<TRIPOS>BOND
     1    1    2 1
     2    2    3 1
     3    3    4 1
     4    4    5 1
     5    5    6 ar
     6    6    7 ar
     7    7    8 ar
     8    8    9 1
     9    8   10 ar
    10   10   11 ar
    11    5   11 ar
    12    3   12 1
    13   12   13 2
    14   13   14 1
    15   14   15 1
    16   15   16 2
    17   16   17 1
    18   17   18 2
    19   13   18 1
    20   18   19 1
    21   19   20 1
    22   20   21 ar
    23   21   22 ar
    24   22   23 ar
    25   23   24 ar
    26   24   25 ar
    27   20   25 ar
    28   16   26 1
    29   26   27 ar
    30   27   28 ar
    31   28   29 ar
    32   29   30 1
    33   29   31 ar
    34   31   32 ar
    35   26   32 ar
    36   14   33 am
    37    3   33 1
    38   33   34 2
    39    1   35 1
    40    4   36 1
    41    4   37 1
    42    6   38 1
    43    7   39 1
    44    9   40 1
    45   10   41 1
    46   11   42 1
    47   15   43 1
    48   19   44 1
    49   19   45 1
    50   21   46 1
    51   22   47 1
    52   23   48 1
    53   24   49 1
    54   25   50 1
    55   27   51 1
    56   28   52 1
    57   30   53 1
    58   31   54 1
    59   32   55 1
@<TRIPOS>SUBSTRUCTURE
     1 <0>         1 GROUP 0 A     ****
@<TRIPOS>MOLECULE
MiniDrugBank_179
   47    50     1     0     0
SMALL
NO_CHARGES

@<TRIPOS>ATOM
      1 C1         16.4957  -10.5233    0.0000 CT        1 <0>        0.00000
      2 C2         15.7811  -10.9341    0.0000 CT        1 <0>        0.00000
      3 C3         17.2171  -10.9410    0.0000 CT        1 <0>        0.00000
      4 C4         16.4992   -9.7017    0.0000 CT        1 <0>        0.00000
      5 O1         15.5532  -10.4473    0.0000 OS        1 <0>        0.00000
      6 O2         15.0078  -10.6303    0.0000 OS        1 <0>        0.00000
      7 O3         15.7846  -11.7695    0.0000 OS        1 <0>        0.00000
      8 C5         17.2171  -11.7695    0.0000 CT        1 <0>        0.00000
      9 C6         17.9282  -10.5267    0.0000 CT        1 <0>        0.00000
     10 C7         17.2171   -9.2874    0.0000 CT        1 <0>        0.00000
     11 C8         16.0573   -9.0942    0.0000 CT        1 <0>        0.00000
     12 O4         15.5567   -9.6223    0.0000 OS        1 <0>        0.00000
     13 C9         14.7627   -9.8397    0.0000 CT        1 <0>        0.00000
     14 C10        16.4992  -12.1837    0.0000 CT        1 <0>        0.00000
     15 C11        17.9317  -12.1803    0.0000 CT        1 <0>        0.00000
     16 C12        17.9282   -9.7017    0.0000 CT        1 <0>        0.00000
     17 C13        17.2171   -8.4625    0.0000 CT        1 <0>        0.00000
     18 C14        15.2288   -9.0769    0.0000 CT        1 <0>        0.00000
     19 C15        13.9446   -9.8397    0.0000 CT        1 <0>        0.00000
     20 O5         16.5026  -13.0087    0.0000 OS        1 <0>        0.00000
     21 H1         15.0596  -11.3414    0.0000 H2        1 <0>        0.00000
     22 H2         17.9248  -11.3518    0.0000 HC        1 <0>        0.00000
     23 H3         16.4957   -8.8766    0.0000 HC        1 <0>        0.00000
     24 C16        15.7806  -13.4294    0.0000 CT        1 <0>        0.00000
     25 H4         17.2171  -11.7695    0.0000 HC        1 <0>        0.00000
     26 H5         17.9282  -10.5267    0.0000 HC        1 <0>        0.00000
     27 H6         17.9282  -10.5267    0.0000 HC        1 <0>        0.00000
     28 H7         17.2171   -9.2874    0.0000 HC        1 <0>        0.00000
     29 H8         16.0573   -9.0942    0.0000 HC        1 <0>        0.00000
     30 H9         16.0573   -9.0942    0.0000 HC        1 <0>        0.00000
     31 H10        16.4992  -12.1837    0.0000 H2        1 <0>        0.00000
     32 H11        17.9317  -12.1803    0.0000 HC        1 <0>        0.00000
     33 H12        17.9317  -12.1803    0.0000 HC        1 <0>        0.00000
     34 H13        17.9317  -12.1803    0.0000 HC        1 <0>        0.00000
     35 H14        17.9282   -9.7017    0.0000 HC        1 <0>        0.00000
     36 H15        17.9282   -9.7017    0.0000 HC        1 <0>        0.00000
     37 H16        17.2171   -8.4625    0.0000 HC        1 <0>        0.00000
     38 H17        17.2171   -8.4625    0.0000 HC        1 <0>        0.00000
     39 H18        17.2171   -8.4625    0.0000 HC        1 <0>        0.00000
     40 H19        15.2288   -9.0769    0.0000 HC        1 <0>        0.00000
     41 H20        15.2288   -9.0769    0.0000 HC        1 <0>        0.00000
     42 H21        13.9446   -9.8397    0.0000 HC        1 <0>        0.00000
     43 H22        13.9446   -9.8397    0.0000 HC        1 <0>        0.00000
     44 H23        13.9446   -9.8397    0.0000 HC        1 <0>        0.00000
     45 H24        15.7806  -13.4294    0.0000 H1        1 <0>        0.00000
     46 H25        15.7806  -13.4294    0.0000 H1        1 <0>        0.00000
     47 H26        15.7806  -13.4294    0.0000 H1        1 <0>        0.00000
@<TRIPOS>BOND
     1    1    2 1
     2    1    3 1
     3    1    4 1
     4    1    5 1
     5    2    6 1
     6    2    7 1
     7    3    8 1
     8    3    9 1
     9    4   10 1
    10    4   11 1
    11    5   12 1
    12    6   13 1
    13    7   14 1
    14    8   15 1
    15    9   16 1
    16   10   17 1
    17   11   18 1
    18   13   19 1
    19   14   20 1
    20    8   14 1
    21   10   16 1
    22   12   13 1
    23   13   18 1
    24    2   21 1
    25    3   22 1
    26    4   23 1
    27   20   24 1
    28    8   25 1
    29    9   26 1
    30    9   27 1
    31   10   28 1
    32   11   29 1
    33   11   30 1
    34   14   31 1
    35   15   32 1
    36   15   33 1
    37   15   34 1
    38   16   35 1
    39   16   36 1
    40   17   37 1
    41   17   38 1
    42   17   39 1
    43   18   40 1
    44   18   41 1
    45   19   42 1
    46   19   43 1
    47   19   44 1
    48   24   45 1
    49   24   46 1
    50   24   47 1
@<TRIPOS>SUBSTRUCTURE
     1 <0>         1 GROUP 0 A     ****
@<TRIPOS>MOLECULE
MiniDrugBank_180
   23    25     1     0     0
SMALL
NO_CHARGES

@<TRIPOS>ATOM
      1 S1          0.7145    3.0151    0.0000 SD        1 <0>        0.00000
      2 P1          1.5395    3.0151    0.0000 P         1 <0>        0.00000
      3 N1          1.5395    2.1901    0.0000 N3        1 <0>        0.00000
      4 C1          1.9520    1.4757    0.0000 CJ        1 <0>        0.00000
      5 C2          1.1270    1.4757    0.0000 CJ        1 <0>        0.00000
      6 N2          1.5395    3.8401    0.0000 N3        1 <0>        0.00000
      7 C3          1.1270    4.5546    0.0000 CJ        1 <0>        0.00000
      8 C4          1.9520    4.5546    0.0000 CJ        1 <0>        0.00000
      9 N3          2.3645    3.0151    0.0000 N3        1 <0>        0.00000
     10 C5          3.0789    3.4276    0.0000 CJ        1 <0>        0.00000
     11 C6          3.0789    2.6026    0.0000 CJ        1 <0>        0.00000
     12 H1          1.9520    1.4757    0.0000 H1        1 <0>        0.00000
     13 H2          1.9520    1.4757    0.0000 H1        1 <0>        0.00000
     14 H3          1.1270    1.4757    0.0000 H1        1 <0>        0.00000
     15 H4          1.1270    1.4757    0.0000 H1        1 <0>        0.00000
     16 H5          1.1270    4.5546    0.0000 H1        1 <0>        0.00000
     17 H6          1.1270    4.5546    0.0000 H1        1 <0>        0.00000
     18 H7          1.9520    4.5546    0.0000 H1        1 <0>        0.00000
     19 H8          1.9520    4.5546    0.0000 H1        1 <0>        0.00000
     20 H9          3.0789    3.4276    0.0000 H1        1 <0>        0.00000
     21 H10         3.0789    3.4276    0.0000 H1        1 <0>        0.00000
     22 H11         3.0789    2.6026    0.0000 H1        1 <0>        0.00000
     23 H12         3.0789    2.6026    0.0000 H1        1 <0>        0.00000
@<TRIPOS>BOND
     1    1    2 2
     2    2    3 1
     3    3    4 1
     4    4    5 1
     5    3    5 1
     6    2    6 1
     7    6    7 1
     8    7    8 1
     9    6    8 1
    10    2    9 1
    11    9   10 1
    12   10   11 1
    13    9   11 1
    14    4   12 1
    15    4   13 1
    16    5   14 1
    17    5   15 1
    18    7   16 1
    19    7   17 1
    20    8   18 1
    21    8   19 1
    22   10   20 1
    23   10   21 1
    24   11   22 1
    25   11   23 1
@<TRIPOS>SUBSTRUCTURE
     1 <0>         1 GROUP 0 A     ****
@<TRIPOS>MOLECULE
888
   50    53     1     0     0
SMALL
NO_CHARGES

@<TRIPOS>ATOM
      1 C1         -1.8368   -1.9576    0.0000 CB        1 <0>        0.00000
      2 C2         -1.8368   -2.7826    0.0000 CA        1 <0>        0.00000
      3 C3         -2.5512   -3.1951    0.0000 CA        1 <0>        0.00000
      4 C4         -3.2657   -2.7826    0.0000 CA        1 <0>        0.00000
      5 C5         -3.2657   -1.9576    0.0000 CA        1 <0>        0.00000
      6 C6         -2.5512   -1.5451    0.0000 CB        1 <0>        0.00000
      7 S1         -2.5512   -0.7201    0.0000 SO        1 <0>        0.00000
      8 N1         -1.8368   -0.3076    0.0000 NC        1 <0>        0.00000
      9 C7         -1.1223   -0.7201    0.0000 CP        1 <0>        0.00000
     10 N2         -1.1223   -1.5451    0.0000 NA        1 <0>        0.00000
     11 C8         -0.4078   -0.3076    0.0000 CP        1 <0>        0.00000
     12 C9          0.3066   -0.7201    0.0000 CA        1 <0>        0.00000
     13 C10         1.0211   -0.3076    0.0000 CB        1 <0>        0.00000
     14 C11         1.0211    0.5174    0.0000 CB        1 <0>        0.00000
     15 N3          0.3066    0.9299    0.0000 N         1 <0>        0.00000
     16 C12        -0.4078    0.5174    0.0000 C         1 <0>        0.00000
     17 C13         1.7356   -0.7201    0.0000 CA        1 <0>        0.00000
     18 C14         2.4501   -0.3076    0.0000 CA        1 <0>        0.00000
     19 C15         2.4501    0.5174    0.0000 CA        1 <0>        0.00000
     20 C16         1.7356    0.9299    0.0000 CA        1 <0>        0.00000
     21 O1          0.3066   -1.5451    0.0000 OH        1 <0>        0.00000
     22 O2         -1.1223    0.9299    0.0000 O         1 <0>        0.00000
     23 C17         0.3066    1.7549    0.0000 CT        1 <0>        0.00000
     24 C18        -0.4078    2.1674    0.0000 CT        1 <0>        0.00000
     25 C19        -0.4078    2.9924    0.0000 CT        1 <0>        0.00000
     26 C20        -1.1223    3.4049    0.0000 CT        1 <0>        0.00000
     27 O3         -3.3757   -0.6913    0.0000 O2        1 <0>        0.00000
     28 O4         -2.9884   -0.0204    0.0000 O2        1 <0>        0.00000
     29 C21         0.3066    3.4049    0.0000 CT        1 <0>        0.00000
     30 H1         -1.8368   -2.7826    0.0000 HA        1 <0>        0.00000
     31 H2         -2.5512   -3.1951    0.0000 HA        1 <0>        0.00000
     32 H3         -3.2657   -2.7826    0.0000 HA        1 <0>        0.00000
     33 H4         -3.2657   -1.9576    0.0000 HA        1 <0>        0.00000
     34 H5         -1.1223   -1.5451    0.0000 H         1 <0>        0.00000
     35 H6          1.7356   -0.7201    0.0000 HA        1 <0>        0.00000
     36 H7          2.4501   -0.3076    0.0000 HA        1 <0>        0.00000
     37 H8          2.4501    0.5174    0.0000 HA        1 <0>        0.00000
     38 H9          1.7356    0.9299    0.0000 HA        1 <0>        0.00000
     39 H10         0.3066   -1.5451    0.0000 HO        1 <0>        0.00000
     40 H11         0.3066    1.7549    0.0000 H1        1 <0>        0.00000
     41 H12         0.3066    1.7549    0.0000 H1        1 <0>        0.00000
     42 H13        -0.4078    2.1674    0.0000 HC        1 <0>        0.00000
     43 H14        -0.4078    2.1674    0.0000 HC        1 <0>        0.00000
     44 H15        -0.4078    2.9924    0.0000 HC        1 <0>        0.00000
     45 H16        -1.1223    3.4049    0.0000 HC        1 <0>        0.00000
     46 H17        -1.1223    3.4049    0.0000 HC        1 <0>        0.00000
     47 H18        -1.1223    3.4049    0.0000 HC        1 <0>        0.00000
     48 H19         0.3066    3.4049    0.0000 HC        1 <0>        0.00000
     49 H20         0.3066    3.4049    0.0000 HC        1 <0>        0.00000
     50 H21         0.3066    3.4049    0.0000 HC        1 <0>        0.00000
@<TRIPOS>BOND
     1    1    2 ar
     2    1    6 ar
     3    1   10 1
     4    2    3 ar
     5    3    4 ar
     6    4    5 ar
     7    5    6 ar
     8    6    7 1
     9    7    8 1
    10    7   27 2
    11    7   28 2
    12    8    9 2
    13    9   10 1
    14    9   11 1
    15   11   12 2
    16   11   16 1
    17   12   13 1
    18   12   21 1
    19   13   14 ar
    20   13   17 ar
    21   14   15 1
    22   14   20 ar
    23   15   16 am
    24   15   23 1
    25   16   22 2
    26   17   18 ar
    27   18   19 ar
    28   19   20 ar
    29   23   24 1
    30   24   25 1
    31   25   26 1
    32   25   29 1
    33    2   30 1
    34    3   31 1
    35    4   32 1
    36    5   33 1
    37   10   34 1
    38   17   35 1
    39   18   36 1
    40   19   37 1
    41   20   38 1
    42   21   39 1
    43   23   40 1
    44   23   41 1
    45   24   42 1
    46   24   43 1
    47   25   44 1
    48   26   45 1
    49   26   46 1
    50   26   47 1
    51   29   48 1
    52   29   49 1
    53   29   50 1
@<TRIPOS>SUBSTRUCTURE
     1 <0>         1 GROUP 0 A     ****
@<TRIPOS>MOLECULE
894
   52    54     1     0     0
SMALL
NO_CHARGES

@<TRIPOS>ATOM
      1 Cl1        -5.8261   -3.2134    0.0000 CL        1 <0>        0.00000
      2 C1         -5.1587   -3.6983    0.0000 CW        1 <0>        0.00000
      3 C2         -5.1587   -4.5233    0.0000 CC        1 <0>        0.00000
      4 C3         -4.3740   -4.7782    0.0000 CC        1 <0>        0.00000
      5 C4         -3.8891   -4.1108    0.0000 CW        1 <0>        0.00000
      6 C5         -3.0641   -4.1108    0.0000 CT        1 <0>        0.00000
      7 S1         -1.8266   -3.3963    0.0000 SO        1 <0>        0.00000
      8 O1         -1.8266   -4.2213    0.0000 O2        1 <0>        0.00000
      9 O2         -1.8266   -2.5713    0.0000 O2        1 <0>        0.00000
     10 N1         -1.0016   -3.3963    0.0000 N3        1 <0>        0.00000
     11 C6         -0.5891   -2.6819    0.0000 CT        1 <0>        0.00000
     12 C7         -0.9247   -1.9282    0.0000 CT        1 <0>        0.00000
     13 C8         -0.3116   -1.3762    0.0000 CT        1 <0>        0.00000
     14 C9          0.2314   -2.5956    0.0000 C         1 <0>        0.00000
     15 O3          0.7834   -3.2087    0.0000 O         1 <0>        0.00000
     16 N2          0.4029   -1.7887    0.0000 N         1 <0>        0.00000
     17 C10         1.1566   -1.4531    0.0000 CT        1 <0>        0.00000
     18 C11         1.8240   -1.9380    0.0000 CT        1 <0>        0.00000
     19 C12         1.2428   -0.6326    0.0000 C         1 <0>        0.00000
     20 O4          0.5754   -0.1477    0.0000 O         1 <0>        0.00000
     21 N3          1.9965   -0.2971    0.0000 N         1 <0>        0.00000
     22 C13         2.0827    0.5234    0.0000 CT        1 <0>        0.00000
     23 C14         2.8364    0.8590    0.0000 CT        1 <0>        0.00000
     24 O5          3.5038    0.3741    0.0000 OS        1 <0>        0.00000
     25 C15         3.4176   -0.4464    0.0000 CT        1 <0>        0.00000
     26 C16         2.6639   -0.7820    0.0000 CT        1 <0>        0.00000
     27 S2         -4.3740   -3.4434    0.0000 S         1 <0>        0.00000
     28 C17        -2.6516   -3.3963    0.0000 CT        1 <0>        0.00000
     29 H1         -1.1723   -2.6513    0.0000 H1        1 <0>        0.00000
     30 H2          1.0955   -2.0338    0.0000 H1        1 <0>        0.00000
     31 H3         -5.1587   -4.5233    0.0000 HA        1 <0>        0.00000
     32 H4         -4.3740   -4.7782    0.0000 HA        1 <0>        0.00000
     33 H5         -3.0641   -4.1108    0.0000 HC        1 <0>        0.00000
     34 H6         -3.0641   -4.1108    0.0000 HC        1 <0>        0.00000
     35 H7         -1.0016   -3.3963    0.0000 H         1 <0>        0.00000
     36 H8         -0.9247   -1.9282    0.0000 HC        1 <0>        0.00000
     37 H9         -0.9247   -1.9282    0.0000 HC        1 <0>        0.00000
     38 H10        -0.3116   -1.3762    0.0000 H1        1 <0>        0.00000
     39 H11        -0.3116   -1.3762    0.0000 H1        1 <0>        0.00000
     40 H12         1.8240   -1.9380    0.0000 HC        1 <0>        0.00000
     41 H13         1.8240   -1.9380    0.0000 HC        1 <0>        0.00000
     42 H14         1.8240   -1.9380    0.0000 HC        1 <0>        0.00000
     43 H15         2.0827    0.5234    0.0000 H1        1 <0>        0.00000
     44 H16         2.0827    0.5234    0.0000 H1        1 <0>        0.00000
     45 H17         2.8364    0.8590    0.0000 H1        1 <0>        0.00000
     46 H18         2.8364    0.8590    0.0000 H1        1 <0>        0.00000
     47 H19         3.4176   -0.4464    0.0000 H1        1 <0>        0.00000
     48 H20         3.4176   -0.4464    0.0000 H1        1 <0>        0.00000
     49 H21         2.6639   -0.7820    0.0000 H1        1 <0>        0.00000
     50 H22         2.6639   -0.7820    0.0000 H1        1 <0>        0.00000
     51 H23        -2.6516   -3.3963    0.0000 H1        1 <0>        0.00000
     52 H24        -2.6516   -3.3963    0.0000 H1        1 <0>        0.00000
@<TRIPOS>BOND
     1    1    2 1
     2    2   27 1
     3    2    3 2
     4    3    4 1
     5    4    5 2
     6    5    6 1
     7    5   27 1
     8    6   28 1
     9    7    8 2
    10    7    9 2
    11    7   10 1
    12    7   28 1
    13   10   11 1
    14   11   12 1
    15   11   14 1
    16   11   29 1
    17   12   13 1
    18   13   16 1
    19   14   15 2
    20   14   16 am
    21   16   17 1
    22   17   18 1
    23   17   19 1
    24   17   30 1
    25   19   20 2
    26   19   21 am
    27   21   22 1
    28   21   26 1
    29   22   23 1
    30   23   24 1
    31   24   25 1
    32   25   26 1
    33    3   31 1
    34    4   32 1
    35    6   33 1
    36    6   34 1
    37   10   35 1
    38   12   36 1
    39   12   37 1
    40   13   38 1
    41   13   39 1
    42   18   40 1
    43   18   41 1
    44   18   42 1
    45   22   43 1
    46   22   44 1
    47   23   45 1
    48   23   46 1
    49   25   47 1
    50   25   48 1
    51   26   49 1
    52   26   50 1
    53   28   51 1
    54   28   52 1
@<TRIPOS>SUBSTRUCTURE
     1 <0>         1 GROUP 0 A     ****
@<TRIPOS>MOLECULE
ID5
   38    40     1     0     0
SMALL
NO_CHARGES

@<TRIPOS>ATOM
      1 C1         -2.3222   -1.3904    0.0000 CA        1 <0>        0.00000
      2 C2         -0.6722   -1.3904    0.0000 CA        1 <0>        0.00000
      3 C3         -1.9097   -0.6760    0.0000 CA        1 <0>        0.00000
      4 C4         -1.9097   -2.1049    0.0000 CA        1 <0>        0.00000
      5 C5         -1.0847   -2.1049    0.0000 CA        1 <0>        0.00000
      6 C6         -1.0847   -0.6760    0.0000 CA        1 <0>        0.00000
      7 F1          4.8033    1.5780    0.0000 F         1 <0>        0.00000
      8 F2         -2.3222   -2.8194    0.0000 F         1 <0>        0.00000
      9 C7         -0.6722    0.0385    0.0000 C         1 <0>        0.00000
     10 C8          1.3903    0.7530    0.0000 CR        1 <0>        0.00000
     11 F3          3.3743   -0.8970    0.0000 F         1 <0>        0.00000
     12 O1         -2.3222    0.0385    0.0000 OS        1 <0>        0.00000
     13 O2         -1.0847    0.7530    0.0000 O         1 <0>        0.00000
     14 C9          0.5653    0.7530    0.0000 CT        1 <0>        0.00000
     15 C10        -3.1472    0.0385    0.0000 CT        1 <0>        0.00000
     16 N1          1.8752    1.4204    0.0000 NB        1 <0>        0.00000
     17 S1          1.8752    0.0855    0.0000 S         1 <0>        0.00000
     18 F4          3.3743    2.4030    0.0000 F         1 <0>        0.00000
     19 C11         2.6599    0.3405    0.0000 CB        1 <0>        0.00000
     20 C12         4.0888    1.1655    0.0000 CA        1 <0>        0.00000
     21 C13         2.6599    1.1655    0.0000 CB        1 <0>        0.00000
     22 C14         3.3743   -0.0720    0.0000 CA        1 <0>        0.00000
     23 C15         4.0888    0.3405    0.0000 CA        1 <0>        0.00000
     24 C16         3.3743    1.5780    0.0000 CA        1 <0>        0.00000
     25 C17        -3.5597    0.7530    0.0000 C         1 <0>        0.00000
     26 O3         -4.3847    0.7530    0.0000 OH        1 <0>        0.00000
     27 O4         -3.1472    1.4675    0.0000 O         1 <0>        0.00000
     28 N2          0.1528    0.0385    0.0000 N         1 <0>        0.00000
     29 H1         -2.3222   -1.3904    0.0000 HA        1 <0>        0.00000
     30 H2         -0.6722   -1.3904    0.0000 HA        1 <0>        0.00000
     31 H3         -1.0847   -2.1049    0.0000 HA        1 <0>        0.00000
     32 H4          0.5653    0.7530    0.0000 H1        1 <0>        0.00000
     33 H5          0.5653    0.7530    0.0000 H1        1 <0>        0.00000
     34 H6         -3.1472    0.0385    0.0000 H1        1 <0>        0.00000
     35 H7         -3.1472    0.0385    0.0000 H1        1 <0>        0.00000
     36 H8          4.0888    0.3405    0.0000 HA        1 <0>        0.00000
     37 H9         -4.3847    0.7530    0.0000 HO        1 <0>        0.00000
     38 H10         0.1528    0.0385    0.0000 H         1 <0>        0.00000
@<TRIPOS>BOND
     1    1    3 ar
     2    1    4 ar
     3    2    5 ar
     4    2    6 ar
     5    3    6 ar
     6    3   12 1
     7    4    5 ar
     8    4    8 1
     9    6    9 1
    10    7   20 1
    11    9   13 2
    12    9   28 am
    13   10   14 1
    14   10   16 2
    15   10   17 1
    16   11   22 1
    17   12   15 1
    18   14   28 1
    19   15   25 1
    20   16   21 1
    21   17   19 1
    22   18   24 1
    23   19   21 ar
    24   19   22 ar
    25   20   23 ar
    26   20   24 ar
    27   21   24 ar
    28   22   23 ar
    29   25   26 1
    30   25   27 2
    31    1   29 1
    32    2   30 1
    33    5   31 1
    34   14   32 1
    35   14   33 1
    36   15   34 1
    37   15   35 1
    38   23   36 1
    39   26   37 1
    40   28   38 1
@<TRIPOS>SUBSTRUCTURE
     1 <0>         1 GROUP 0 A     ****
@<TRIPOS>MOLECULE
1031
   25    25     1     0     0
SMALL
NO_CHARGES

@<TRIPOS>ATOM
      1 O1          3.1433    0.6035    0.0000 OS        1 <0>        0.00000
      2 O2          4.3808   -0.1110    0.0000 O         1 <0>        0.00000
      3 N1          4.3808    1.3180    0.0000 N         1 <0>        0.00000
      4 C1          2.7308   -0.1110    0.0000 CT        1 <0>        0.00000
      5 C2          2.0163   -0.5235    0.0000 CT        1 <0>        0.00000
      6 C3          3.4453   -0.5235    0.0000 CT        1 <0>        0.00000
      7 C4          2.0163   -1.3485    0.0000 CT        1 <0>        0.00000
      8 C5          3.4453   -1.3485    0.0000 CT        1 <0>        0.00000
      9 C6          2.7308   -1.7610    0.0000 CT        1 <0>        0.00000
     10 C7          2.3183    0.6035    0.0000 C2        1 <0>        0.00000
     11 C8          3.9683    0.6035    0.0000 C         1 <0>        0.00000
     12 C9          1.9058    1.3180    0.0000 C2        1 <0>        0.00000
     13 H1          4.3808    1.3180    0.0000 H         1 <0>        0.00000
     14 H2          4.3808    1.3180    0.0000 H         1 <0>        0.00000
     15 H3          2.0163   -0.5235    0.0000 HC        1 <0>        0.00000
     16 H4          2.0163   -0.5235    0.0000 HC        1 <0>        0.00000
     17 H5          3.4453   -0.5235    0.0000 HC        1 <0>        0.00000
     18 H6          3.4453   -0.5235    0.0000 HC        1 <0>        0.00000
     19 H7          2.0163   -1.3485    0.0000 HC        1 <0>        0.00000
     20 H8          2.0163   -1.3485    0.0000 HC        1 <0>        0.00000
     21 H9          3.4453   -1.3485    0.0000 HC        1 <0>        0.00000
     22 H10         3.4453   -1.3485    0.0000 HC        1 <0>        0.00000
     23 H11         2.7308   -1.7610    0.0000 HC        1 <0>        0.00000
     24 H12         2.7308   -1.7610    0.0000 HC        1 <0>        0.00000
     25 H13         1.9058    1.3180    0.0000 HC        1 <0>        0.00000
@<TRIPOS>BOND
     1    1    4 1
     2    1   11 1
     3    2   11 2
     4    3   11 am
     5    4    5 1
     6    4    6 1
     7    4   10 1
     8    5    7 1
     9    6    8 1
    10    7    9 1
    11    8    9 1
    12   10   12 3
    13    3   13 1
    14    3   14 1
    15    5   15 1
    16    5   16 1
    17    6   17 1
    18    6   18 1
    19    7   19 1
    20    7   20 1
    21    8   21 1
    22    8   22 1
    23    9   23 1
    24    9   24 1
    25   12   25 1
@<TRIPOS>SUBSTRUCTURE
     1 <0>         1 GROUP 0 A     ****
@<TRIPOS>MOLECULE
1034
   33    33     1     0     0
SMALL
NO_CHARGES

@<TRIPOS>ATOM
      1 O1          3.9345    0.9760    0.0000 OS        1 <0>        0.00000
      2 O2          5.0615   -0.9760    0.0000 O         1 <0>        0.00000
      3 O3          2.8075   -0.9760    0.0000 O         1 <0>        0.00000
      4 N1          2.0930    0.2615    0.0000 N         1 <0>        0.00000
      5 C1          4.3470    0.2615    0.0000 CJ        1 <0>        0.00000
      6 C2          3.5220    0.2615    0.0000 CJ        1 <0>        0.00000
      7 C3          5.0615   -0.1510    0.0000 C         1 <0>        0.00000
      8 C4          5.7760    0.2615    0.0000 CT        1 <0>        0.00000
      9 C5          2.8075   -0.1510    0.0000 C         1 <0>        0.00000
     10 C6          6.4905   -0.1510    0.0000 CT        1 <0>        0.00000
     11 C7          7.2050    0.2615    0.0000 CM        1 <0>        0.00000
     12 C8          7.9194   -0.1510    0.0000 CM        1 <0>        0.00000
     13 C9          8.6339    0.2615    0.0000 CT        1 <0>        0.00000
     14 C10         9.3484   -0.1510    0.0000 CM        1 <0>        0.00000
     15 C11        10.0629    0.2615    0.0000 CM        1 <0>        0.00000
     16 C12        10.7774   -0.1510    0.0000 CT        1 <0>        0.00000
     17 H1          2.0930    0.2615    0.0000 H         1 <0>        0.00000
     18 H2          2.0930    0.2615    0.0000 H         1 <0>        0.00000
     19 H3          4.3470    0.2615    0.0000 H1        1 <0>        0.00000
     20 H4          3.5220    0.2615    0.0000 H1        1 <0>        0.00000
     21 H5          5.7760    0.2615    0.0000 HC        1 <0>        0.00000
     22 H6          5.7760    0.2615    0.0000 HC        1 <0>        0.00000
     23 H7          6.4905   -0.1510    0.0000 HC        1 <0>        0.00000
     24 H8          6.4905   -0.1510    0.0000 HC        1 <0>        0.00000
     25 H9          7.2050    0.2615    0.0000 HA        1 <0>        0.00000
     26 H10         7.9194   -0.1510    0.0000 HA        1 <0>        0.00000
     27 H11         8.6339    0.2615    0.0000 HC        1 <0>        0.00000
     28 H12         8.6339    0.2615    0.0000 HC        1 <0>        0.00000
     29 H13         9.3484   -0.1510    0.0000 HA        1 <0>        0.00000
     30 H14        10.0629    0.2615    0.0000 HA        1 <0>        0.00000
     31 H15        10.7774   -0.1510    0.0000 HC        1 <0>        0.00000
     32 H16        10.7774   -0.1510    0.0000 HC        1 <0>        0.00000
     33 H17        10.7774   -0.1510    0.0000 HC        1 <0>        0.00000
@<TRIPOS>BOND
     1    1    5 1
     2    1    6 1
     3    2    7 2
     4    3    9 2
     5    4    9 am
     6    5    6 1
     7    5    7 1
     8    6    9 1
     9    7    8 1
    10    8   10 1
    11   10   11 1
    12   11   12 2
    13   12   13 1
    14   13   14 1
    15   14   15 2
    16   15   16 1
    17    4   17 1
    18    4   18 1
    19    5   19 1
    20    6   20 1
    21    8   21 1
    22    8   22 1
    23   10   23 1
    24   10   24 1
    25   11   25 1
    26   12   26 1
    27   13   27 1
    28   13   28 1
    29   14   29 1
    30   15   30 1
    31   16   31 1
    32   16   32 1
    33   16   33 1
@<TRIPOS>SUBSTRUCTURE
     1 <0>         1 GROUP 0 A     ****
@<TRIPOS>MOLECULE
MiniDrugBank_186
   20    20     1     0     0
SMALL
NO_CHARGES

@<TRIPOS>ATOM
      1 N1          1.5783    2.2433    0.0000 N3        1 <0>        0.00000
      2 C1          2.1913    1.6913    0.0000 CT        1 <0>        0.00000
      3 C2          2.0198    0.8843    0.0000 CT        1 <0>        0.00000
      4 C3          1.2352    0.6294    0.0000 CW        1 <0>        0.00000
      5 C4          0.9803   -0.1553    0.0000 CC        1 <0>        0.00000
      6 O1          0.1553   -0.1553    0.0000 OS        1 <0>        0.00000
      7 N2         -0.0997    0.6294    0.0000 N         1 <0>        0.00000
      8 C5          0.5678    1.1143    0.0000 C         1 <0>        0.00000
      9 O2          0.5678    1.9393    0.0000 O         1 <0>        0.00000
     10 C6          2.9760    1.9462    0.0000 C         1 <0>        0.00000
     11 O3          3.1475    2.7532    0.0000 OH        1 <0>        0.00000
     12 O4          3.5891    1.3942    0.0000 O         1 <0>        0.00000
     13 H1          1.5783    2.2433    0.0000 H         1 <0>        0.00000
     14 H2          1.5783    2.2433    0.0000 H         1 <0>        0.00000
     15 H3          2.1913    1.6913    0.0000 H1        1 <0>        0.00000
     16 H4          2.0198    0.8843    0.0000 HC        1 <0>        0.00000
     17 H5          2.0198    0.8843    0.0000 HC        1 <0>        0.00000
     18 H6          0.9803   -0.1553    0.0000 H4        1 <0>        0.00000
     19 H7         -0.0997    0.6294    0.0000 H         1 <0>        0.00000
     20 H8          3.1475    2.7532    0.0000 HO        1 <0>        0.00000
@<TRIPOS>BOND
     1    1    2 1
     2    2    3 1
     3    3    4 1
     4    4    5 2
     5    5    6 1
     6    6    7 1
     7    7    8 am
     8    4    8 1
     9    8    9 2
    10    2   10 1
    11   10   11 1
    12   10   12 2
    13    1   13 1
    14    1   14 1
    15    2   15 1
    16    3   16 1
    17    3   17 1
    18    5   18 1
    19    7   19 1
    20   11   20 1
@<TRIPOS>SUBSTRUCTURE
     1 <0>         1 GROUP 0 A     ****
@<TRIPOS>MOLECULE
MiniDrugBank_187
   31    31     1     0     0
SMALL
NO_CHARGES

@<TRIPOS>ATOM
      1 C1         -1.7813   -1.0812    0.0000 CA        1 <0>        0.00000
      2 C2         -2.4957   -1.4937    0.0000 CA        1 <0>        0.00000
      3 C3         -2.4957   -2.3188    0.0000 CA        1 <0>        0.00000
      4 C4         -1.7813   -2.7313    0.0000 CA        1 <0>        0.00000
      5 C5         -1.0668   -2.3188    0.0000 CA        1 <0>        0.00000
      6 C6         -1.0668   -1.4937    0.0000 CA        1 <0>        0.00000
      7 C7         -0.3523   -1.0812    0.0000 CT        1 <0>        0.00000
      8 C8          1.0766   -1.0812    0.0000 CT        1 <0>        0.00000
      9 C9          0.3622   -1.4937    0.0000 CT        1 <0>        0.00000
     10 C10        -0.3523   -2.7312    0.0000 CT        1 <0>        0.00000
     11 C11         1.0766   -2.7312    0.0000 CT        1 <0>        0.00000
     12 C12         1.7911   -2.3187    0.0000 C2        1 <0>        0.00000
     13 C13         2.5056   -1.9062    0.0000 C2        1 <0>        0.00000
     14 N1          0.3622   -2.3187    0.0000 N3        1 <0>        0.00000
     15 H1         -1.7813   -1.0812    0.0000 HA        1 <0>        0.00000
     16 H2         -2.4957   -1.4937    0.0000 HA        1 <0>        0.00000
     17 H3         -2.4957   -2.3188    0.0000 HA        1 <0>        0.00000
     18 H4         -1.7813   -2.7313    0.0000 HA        1 <0>        0.00000
     19 H5         -1.0668   -2.3188    0.0000 HA        1 <0>        0.00000
     20 H6         -0.3523   -1.0812    0.0000 HC        1 <0>        0.00000
     21 H7         -0.3523   -1.0812    0.0000 HC        1 <0>        0.00000
     22 H8          1.0766   -1.0812    0.0000 HC        1 <0>        0.00000
     23 H9          1.0766   -1.0812    0.0000 HC        1 <0>        0.00000
     24 H10         1.0766   -1.0812    0.0000 HC        1 <0>        0.00000
     25 H11         0.3622   -1.4937    0.0000 H1        1 <0>        0.00000
     26 H12        -0.3523   -2.7312    0.0000 H1        1 <0>        0.00000
     27 H13        -0.3523   -2.7312    0.0000 H1        1 <0>        0.00000
     28 H14        -0.3523   -2.7312    0.0000 H1        1 <0>        0.00000
     29 H15         1.0766   -2.7312    0.0000 H1        1 <0>        0.00000
     30 H16         1.0766   -2.7312    0.0000 H1        1 <0>        0.00000
     31 H17         2.5056   -1.9062    0.0000 HC        1 <0>        0.00000
@<TRIPOS>BOND
     1    1    2 ar
     2    1    6 ar
     3    2    3 ar
     4    3    4 ar
     5    4    5 ar
     6    5    6 ar
     7    6    7 1
     8    7    9 1
     9    8    9 1
    10   10   14 1
    11   11   14 1
    12   11   12 1
    13   12   13 3
    14    9   14 1
    15    1   15 1
    16    2   16 1
    17    3   17 1
    18    4   18 1
    19    5   19 1
    20    7   20 1
    21    7   21 1
    22    8   22 1
    23    8   23 1
    24    8   24 1
    25    9   25 1
    26   10   26 1
    27   10   27 1
    28   10   28 1
    29   11   29 1
    30   11   30 1
    31   13   31 1
@<TRIPOS>SUBSTRUCTURE
     1 <0>         1 GROUP 0 A     ****
@<TRIPOS>MOLECULE
1406
   52    56     1     0     0
SMALL
NO_CHARGES

@<TRIPOS>ATOM
      1 O1          6.9568   -1.5062    0.0000 OH        1 <0>        0.00000
      2 O2          2.0778    1.8006    0.0000 OS        1 <0>        0.00000
      3 N1          1.5935    1.1328    0.0000 NB        1 <0>        0.00000
      4 C1          6.4022    0.3306    0.0000 CT        1 <0>        0.00000
      5 C2          6.4086   -0.4993    0.0000 CT        1 <0>        0.00000
      6 C3          5.6772    0.7344    0.0000 CT        1 <0>        0.00000
      7 C4          4.9872    0.3361    0.0000 CT        1 <0>        0.00000
      8 C5          4.2973    0.7344    0.0000 CT        1 <0>        0.00000
      9 C6          5.6899   -0.9142    0.0000 CT        1 <0>        0.00000
     10 C7          7.1958   -0.7462    0.0000 CT        1 <0>        0.00000
     11 C8          4.9745   -0.4937    0.0000 CT        1 <0>        0.00000
     12 C9          7.1855    0.5895    0.0000 CT        1 <0>        0.00000
     13 C10         5.6772    1.5312    0.0000 CT        1 <0>        0.00000
     14 C11         7.6751   -0.0746    0.0000 CT        1 <0>        0.00000
     15 C12         4.2973    1.5312    0.0000 CM        1 <0>        0.00000
     16 C13         6.4148   -1.2960    0.0000 CT        1 <0>        0.00000
     17 C14         4.9872    1.9296    0.0000 CT        1 <0>        0.00000
     18 C15         3.5850    0.3084    0.0000 CT        1 <0>        0.00000
     19 C16         4.2973   -0.0623    0.0000 CT        1 <0>        0.00000
     20 C17         7.8448   -1.2083    0.0000 C2        1 <0>        0.00000
     21 C18         3.5850    1.9571    0.0000 CM        1 <0>        0.00000
     22 C19         2.8630    0.7178    0.0000 CC        1 <0>        0.00000
     23 C20         2.8630    1.5477    0.0000 CW        1 <0>        0.00000
     24 C21         2.0778    0.4649    0.0000 CR        1 <0>        0.00000
     25 C22         8.4938   -1.6706    0.0000 C2        1 <0>        0.00000
     26 H1          6.4623    0.9651    0.0000 HC        1 <0>        0.00000
     27 H2          6.2267    1.0574    0.0000 HC        1 <0>        0.00000
     28 H3          4.4329    0.0216    0.0000 HC        1 <0>        0.00000
     29 H4          6.9568   -1.5062    0.0000 HO        1 <0>        0.00000
     30 H5          5.6899   -0.9142    0.0000 HC        1 <0>        0.00000
     31 H6          5.6899   -0.9142    0.0000 HC        1 <0>        0.00000
     32 H7          4.9745   -0.4937    0.0000 HC        1 <0>        0.00000
     33 H8          4.9745   -0.4937    0.0000 HC        1 <0>        0.00000
     34 H9          7.1855    0.5895    0.0000 HC        1 <0>        0.00000
     35 H10         7.1855    0.5895    0.0000 HC        1 <0>        0.00000
     36 H11         5.6772    1.5312    0.0000 HC        1 <0>        0.00000
     37 H12         5.6772    1.5312    0.0000 HC        1 <0>        0.00000
     38 H13         7.6751   -0.0746    0.0000 HC        1 <0>        0.00000
     39 H14         7.6751   -0.0746    0.0000 HC        1 <0>        0.00000
     40 H15         6.4148   -1.2960    0.0000 HC        1 <0>        0.00000
     41 H16         6.4148   -1.2960    0.0000 HC        1 <0>        0.00000
     42 H17         6.4148   -1.2960    0.0000 HC        1 <0>        0.00000
     43 H18         4.9872    1.9296    0.0000 HC        1 <0>        0.00000
     44 H19         4.9872    1.9296    0.0000 HC        1 <0>        0.00000
     45 H20         3.5850    0.3084    0.0000 HC        1 <0>        0.00000
     46 H21         3.5850    0.3084    0.0000 HC        1 <0>        0.00000
     47 H22         4.2973   -0.0623    0.0000 HC        1 <0>        0.00000
     48 H23         4.2973   -0.0623    0.0000 HC        1 <0>        0.00000
     49 H24         4.2973   -0.0623    0.0000 HC        1 <0>        0.00000
     50 H25         3.5850    1.9571    0.0000 HA        1 <0>        0.00000
     51 H26         2.0778    0.4649    0.0000 H4        1 <0>        0.00000
     52 H27         8.4938   -1.6706    0.0000 HC        1 <0>        0.00000
@<TRIPOS>BOND
     1    1   10 1
     2    2    3 1
     3    2   23 1
     4    3   24 2
     5    4    5 1
     6    4    6 1
     7    4   12 1
     8    4   26 1
     9    5    9 1
    10    5   10 1
    11    5   16 1
    12    6    7 1
    13    6   13 1
    14    6   27 1
    15    7    8 1
    16    7   11 1
    17    7   28 1
    18    8   15 1
    19    8   18 1
    20    8   19 1
    21    9   11 1
    22   10   14 1
    23   10   20 1
    24   12   14 1
    25   13   17 1
    26   15   17 1
    27   15   21 2
    28   18   22 1
    29   20   25 3
    30   21   23 1
    31   22   23 2
    32   22   24 1
    33    1   29 1
    34    9   30 1
    35    9   31 1
    36   11   32 1
    37   11   33 1
    38   12   34 1
    39   12   35 1
    40   13   36 1
    41   13   37 1
    42   14   38 1
    43   14   39 1
    44   16   40 1
    45   16   41 1
    46   16   42 1
    47   17   43 1
    48   17   44 1
    49   18   45 1
    50   18   46 1
    51   19   47 1
    52   19   48 1
    53   19   49 1
    54   21   50 1
    55   24   51 1
    56   25   52 1
@<TRIPOS>SUBSTRUCTURE
     1 <0>         1 GROUP 0 A     ****
@<TRIPOS>MOLECULE
MiniDrugBank_189
   81    83     1     0     0
SMALL
NO_CHARGES

@<TRIPOS>ATOM
      1 C1          0.0000   -4.1250    0.0000 CT        1 <0>        0.00000
      2 C2          0.0000   -4.9500    0.0000 CT        1 <0>        0.00000
      3 N1          0.7145   -5.3625    0.0000 N         1 <0>        0.00000
      4 C3          0.7145   -6.1875    0.0000 C         1 <0>        0.00000
      5 O1          0.0000   -6.6000    0.0000 O         1 <0>        0.00000
      6 C4          1.4289   -6.6000    0.0000 CT        1 <0>        0.00000
      7 C5          1.4289   -7.4250    0.0000 CT        1 <0>        0.00000
      8 C6          2.1434   -7.8375    0.0000 CA        1 <0>        0.00000
      9 C7          2.8579   -7.4250    0.0000 CA        1 <0>        0.00000
     10 C8          3.5724   -7.8375    0.0000 CA        1 <0>        0.00000
     11 C9          3.5724   -8.6625    0.0000 CA        1 <0>        0.00000
     12 O2          4.2868   -9.0750    0.0000 OS        1 <0>        0.00000
     13 C10         4.2868   -9.9000    0.0000 CT        1 <0>        0.00000
     14 C11         5.0013  -10.3125    0.0000 C         1 <0>        0.00000
     15 O3          5.0013  -11.1375    0.0000 OH        1 <0>        0.00000
     16 O4          5.7158   -9.9000    0.0000 O         1 <0>        0.00000
     17 C12         2.8579   -9.0750    0.0000 CA        1 <0>        0.00000
     18 C13         2.1434   -8.6625    0.0000 CA        1 <0>        0.00000
     19 P1          2.8579   -9.9000    0.0000 P         1 <0>        0.00000
     20 O5          2.8579  -10.7250    0.0000 OH        1 <0>        0.00000
     21 O6          2.0329   -9.9000    0.0000 OH        1 <0>        0.00000
     22 O7          3.6829   -9.9000    0.0000 O         1 <0>        0.00000
     23 N2          2.1434   -6.1875    0.0000 N         1 <0>        0.00000
     24 C14         2.1434   -5.3625    0.0000 C         1 <0>        0.00000
     25 C15         1.4289   -4.9500    0.0000 CT        1 <0>        0.00000
     26 O8          2.8579   -4.9500    0.0000 O         1 <0>        0.00000
     27 C16        -0.7145   -5.3625    0.0000 CA        1 <0>        0.00000
     28 C17        -0.7145   -6.1875    0.0000 CA        1 <0>        0.00000
     29 C18        -1.4289   -6.6000    0.0000 CA        1 <0>        0.00000
     30 C19        -2.1434   -6.1875    0.0000 CA        1 <0>        0.00000
     31 O9         -2.8579   -6.6000    0.0000 OS        1 <0>        0.00000
     32 C20        -2.8579   -7.4250    0.0000 CT        1 <0>        0.00000
     33 C21        -3.5724   -7.8375    0.0000 CT        1 <0>        0.00000
     34 C22        -3.5724   -8.6625    0.0000 CT        1 <0>        0.00000
     35 C23        -4.2868   -9.0750    0.0000 CT        1 <0>        0.00000
     36 C24        -5.0013   -8.6625    0.0000 CT        1 <0>        0.00000
     37 C25        -5.0013   -7.8375    0.0000 CT        1 <0>        0.00000
     38 C26        -4.2868   -7.4250    0.0000 CT        1 <0>        0.00000
     39 C27        -2.1434   -5.3625    0.0000 CA        1 <0>        0.00000
     40 C28        -1.4289   -4.9500    0.0000 CA        1 <0>        0.00000
     41 C29        -2.8579   -4.9500    0.0000 C         1 <0>        0.00000
     42 N3         -2.8579   -4.1250    0.0000 N         1 <0>        0.00000
     43 O10        -3.5724   -5.3625    0.0000 O         1 <0>        0.00000
     44 H1          0.0000   -4.1250    0.0000 HC        1 <0>        0.00000
     45 H2          0.0000   -4.1250    0.0000 HC        1 <0>        0.00000
     46 H3          0.0000   -4.1250    0.0000 HC        1 <0>        0.00000
     47 H4          0.0000   -4.9500    0.0000 H1        1 <0>        0.00000
     48 H5          0.7145   -5.3625    0.0000 H         1 <0>        0.00000
     49 H6          1.4289   -6.6000    0.0000 H1        1 <0>        0.00000
     50 H7          1.4289   -7.4250    0.0000 HC        1 <0>        0.00000
     51 H8          1.4289   -7.4250    0.0000 HC        1 <0>        0.00000
     52 H9          2.8579   -7.4250    0.0000 HA        1 <0>        0.00000
     53 H10         3.5724   -7.8375    0.0000 HA        1 <0>        0.00000
     54 H11         4.2868   -9.9000    0.0000 H1        1 <0>        0.00000
     55 H12         4.2868   -9.9000    0.0000 H1        1 <0>        0.00000
     56 H13         5.0013  -11.1375    0.0000 HO        1 <0>        0.00000
     57 H14         2.1434   -8.6625    0.0000 HA        1 <0>        0.00000
     58 H15         2.8579  -10.7250    0.0000 HO        1 <0>        0.00000
     59 H16         2.0329   -9.9000    0.0000 HO        1 <0>        0.00000
     60 H17         2.1434   -6.1875    0.0000 H         1 <0>        0.00000
     61 H18         1.4289   -4.9500    0.0000 HC        1 <0>        0.00000
     62 H19         1.4289   -4.9500    0.0000 HC        1 <0>        0.00000
     63 H20         1.4289   -4.9500    0.0000 HC        1 <0>        0.00000
     64 H21        -0.7145   -6.1875    0.0000 HA        1 <0>        0.00000
     65 H22        -1.4289   -6.6000    0.0000 HA        1 <0>        0.00000
     66 H23        -2.8579   -7.4250    0.0000 H1        1 <0>        0.00000
     67 H24        -2.8579   -7.4250    0.0000 H1        1 <0>        0.00000
     68 H25        -3.5724   -7.8375    0.0000 HC        1 <0>        0.00000
     69 H26        -3.5724   -8.6625    0.0000 HC        1 <0>        0.00000
     70 H27        -3.5724   -8.6625    0.0000 HC        1 <0>        0.00000
     71 H28        -4.2868   -9.0750    0.0000 HC        1 <0>        0.00000
     72 H29        -4.2868   -9.0750    0.0000 HC        1 <0>        0.00000
     73 H30        -5.0013   -8.6625    0.0000 HC        1 <0>        0.00000
     74 H31        -5.0013   -8.6625    0.0000 HC        1 <0>        0.00000
     75 H32        -5.0013   -7.8375    0.0000 HC        1 <0>        0.00000
     76 H33        -5.0013   -7.8375    0.0000 HC        1 <0>        0.00000
     77 H34        -4.2868   -7.4250    0.0000 HC        1 <0>        0.00000
     78 H35        -4.2868   -7.4250    0.0000 HC        1 <0>        0.00000
     79 H36        -1.4289   -4.9500    0.0000 HA        1 <0>        0.00000
     80 H37        -2.8579   -4.1250    0.0000 H         1 <0>        0.00000
     81 H38        -2.8579   -4.1250    0.0000 H         1 <0>        0.00000
@<TRIPOS>BOND
     1    1    2 1
     2    2    3 1
     3    3    4 am
     4    4    5 2
     5    4    6 1
     6    6    7 1
     7    7    8 1
     8    8    9 ar
     9    9   10 ar
    10   10   11 ar
    11   11   12 1
    12   12   13 1
    13   13   14 1
    14   14   15 1
    15   14   16 2
    16   11   17 ar
    17   17   18 ar
    18    8   18 ar
    19   17   19 1
    20   19   20 1
    21   19   21 1
    22   19   22 2
    23    6   23 1
    24   23   24 am
    25   24   25 1
    26   24   26 2
    27    2   27 1
    28   27   28 ar
    29   28   29 ar
    30   29   30 ar
    31   30   31 1
    32   31   32 1
    33   32   33 1
    34   33   34 1
    35   34   35 1
    36   35   36 1
    37   36   37 1
    38   37   38 1
    39   33   38 1
    40   30   39 ar
    41   39   40 ar
    42   27   40 ar
    43   39   41 1
    44   41   42 am
    45   41   43 2
    46    1   44 1
    47    1   45 1
    48    1   46 1
    49    2   47 1
    50    3   48 1
    51    6   49 1
    52    7   50 1
    53    7   51 1
    54    9   52 1
    55   10   53 1
    56   13   54 1
    57   13   55 1
    58   15   56 1
    59   18   57 1
    60   20   58 1
    61   21   59 1
    62   23   60 1
    63   25   61 1
    64   25   62 1
    65   25   63 1
    66   28   64 1
    67   29   65 1
    68   32   66 1
    69   32   67 1
    70   33   68 1
    71   34   69 1
    72   34   70 1
    73   35   71 1
    74   35   72 1
    75   36   73 1
    76   36   74 1
    77   37   75 1
    78   37   76 1
    79   38   77 1
    80   38   78 1
    81   40   79 1
    82   42   80 1
    83   42   81 1
@<TRIPOS>SUBSTRUCTURE
     1 <0>         1 GROUP 0 A     ****
@<TRIPOS>MOLECULE
MiniDrugBank_190
   78    79     1     0     0
SMALL
NO_CHARGES

@<TRIPOS>ATOM
      1 N1          8.5737   -9.0750    0.0000 NB        1 <0>        0.00000
      2 C1          7.8592   -8.6625    0.0000 C         1 <0>        0.00000
      3 N2          7.1447   -9.0750    0.0000 N         1 <0>        0.00000
      4 C2          7.8592   -7.8375    0.0000 CT        1 <0>        0.00000
      5 C3          7.1447   -7.4250    0.0000 CT        1 <0>        0.00000
      6 C4          7.1447   -6.6000    0.0000 CT        1 <0>        0.00000
      7 N3          6.4302   -6.1875    0.0000 N         1 <0>        0.00000
      8 C5          5.7158   -6.6000    0.0000 C         1 <0>        0.00000
      9 O1          5.7158   -7.4250    0.0000 O         1 <0>        0.00000
     10 C6          5.0013   -6.1875    0.0000 CT        1 <0>        0.00000
     11 N4          4.2868   -6.6000    0.0000 N3        1 <0>        0.00000
     12 S1          3.5724   -6.1875    0.0000 SO        1 <0>        0.00000
     13 O2          3.1599   -6.9020    0.0000 O2        1 <0>        0.00000
     14 O3          3.9849   -5.4730    0.0000 O2        1 <0>        0.00000
     15 C7          2.8579   -5.7750    0.0000 CT        1 <0>        0.00000
     16 C8          2.1434   -6.1875    0.0000 CA        1 <0>        0.00000
     17 C9          2.1434   -7.0125    0.0000 CA        1 <0>        0.00000
     18 C10         1.4289   -7.4250    0.0000 CA        1 <0>        0.00000
     19 C11         0.7145   -7.0125    0.0000 CA        1 <0>        0.00000
     20 C12         0.7145   -6.1875    0.0000 CA        1 <0>        0.00000
     21 C13         1.4289   -5.7750    0.0000 CA        1 <0>        0.00000
     22 C14         1.4289   -8.2500    0.0000 C         1 <0>        0.00000
     23 O4          0.7145   -8.6625    0.0000 OH        1 <0>        0.00000
     24 O5          2.1434   -8.6625    0.0000 O         1 <0>        0.00000
     25 C15         5.0013   -5.3625    0.0000 CT        1 <0>        0.00000
     26 C16         5.7158   -4.9500    0.0000 CT        1 <0>        0.00000
     27 C17         4.2868   -4.9500    0.0000 CT        1 <0>        0.00000
     28 C18         4.2868   -4.1250    0.0000 CT        1 <0>        0.00000
     29 C19         7.8592   -6.1875    0.0000 C         1 <0>        0.00000
     30 O6          7.8592   -5.3625    0.0000 O         1 <0>        0.00000
     31 N5          8.5737   -6.6000    0.0000 N         1 <0>        0.00000
     32 C20         9.2881   -6.1875    0.0000 CT        1 <0>        0.00000
     33 C21        10.0026   -6.6000    0.0000 CA        1 <0>        0.00000
     34 C22        10.7171   -6.1875    0.0000 CA        1 <0>        0.00000
     35 C23        11.4315   -6.6000    0.0000 CA        1 <0>        0.00000
     36 C24        11.4315   -7.4250    0.0000 CA        1 <0>        0.00000
     37 C25        10.7171   -7.8375    0.0000 CA        1 <0>        0.00000
     38 C26        10.0026   -7.4250    0.0000 CA        1 <0>        0.00000
     39 C27        12.1460   -7.8375    0.0000 C         1 <0>        0.00000
     40 N6         12.8605   -7.4250    0.0000 N         1 <0>        0.00000
     41 N7         12.1460   -8.6625    0.0000 NB        1 <0>        0.00000
     42 H1          8.5737   -9.0750    0.0000 H         1 <0>        0.00000
     43 H2          7.1447   -9.0750    0.0000 H         1 <0>        0.00000
     44 H3          7.1447   -9.0750    0.0000 H         1 <0>        0.00000
     45 H4          7.8592   -7.8375    0.0000 HC        1 <0>        0.00000
     46 H5          7.8592   -7.8375    0.0000 HC        1 <0>        0.00000
     47 H6          7.1447   -7.4250    0.0000 HC        1 <0>        0.00000
     48 H7          7.1447   -7.4250    0.0000 HC        1 <0>        0.00000
     49 H8          7.1447   -6.6000    0.0000 H1        1 <0>        0.00000
     50 H9          6.4302   -6.1875    0.0000 H         1 <0>        0.00000
     51 H10         5.0013   -6.1875    0.0000 H1        1 <0>        0.00000
     52 H11         4.2868   -6.6000    0.0000 H         1 <0>        0.00000
     53 H12         2.8579   -5.7750    0.0000 H1        1 <0>        0.00000
     54 H13         2.8579   -5.7750    0.0000 H1        1 <0>        0.00000
     55 H14         2.1434   -7.0125    0.0000 HA        1 <0>        0.00000
     56 H15         0.7145   -7.0125    0.0000 HA        1 <0>        0.00000
     57 H16         0.7145   -6.1875    0.0000 HA        1 <0>        0.00000
     58 H17         1.4289   -5.7750    0.0000 HA        1 <0>        0.00000
     59 H18         0.7145   -8.6625    0.0000 HO        1 <0>        0.00000
     60 H19         5.0013   -5.3625    0.0000 HC        1 <0>        0.00000
     61 H20         5.7158   -4.9500    0.0000 HC        1 <0>        0.00000
     62 H21         5.7158   -4.9500    0.0000 HC        1 <0>        0.00000
     63 H22         5.7158   -4.9500    0.0000 HC        1 <0>        0.00000
     64 H23         4.2868   -4.9500    0.0000 HC        1 <0>        0.00000
     65 H24         4.2868   -4.9500    0.0000 HC        1 <0>        0.00000
     66 H25         4.2868   -4.1250    0.0000 HC        1 <0>        0.00000
     67 H26         4.2868   -4.1250    0.0000 HC        1 <0>        0.00000
     68 H27         4.2868   -4.1250    0.0000 HC        1 <0>        0.00000
     69 H28         8.5737   -6.6000    0.0000 H         1 <0>        0.00000
     70 H29         9.2881   -6.1875    0.0000 H1        1 <0>        0.00000
     71 H30         9.2881   -6.1875    0.0000 H1        1 <0>        0.00000
     72 H31        10.7171   -6.1875    0.0000 HA        1 <0>        0.00000
     73 H32        11.4315   -6.6000    0.0000 HA        1 <0>        0.00000
     74 H33        10.7171   -7.8375    0.0000 HA        1 <0>        0.00000
     75 H34        10.0026   -7.4250    0.0000 HA        1 <0>        0.00000
     76 H35        12.8605   -7.4250    0.0000 H         1 <0>        0.00000
     77 H36        12.8605   -7.4250    0.0000 H         1 <0>        0.00000
     78 H37        12.1460   -8.6625    0.0000 H         1 <0>        0.00000
@<TRIPOS>BOND
     1    1    2 2
     2    2    3 1
     3    2    4 1
     4    4    5 1
     5    5    6 1
     6    6    7 1
     7    7    8 am
     8    8    9 2
     9    8   10 1
    10   10   11 1
    11   11   12 1
    12   12   13 2
    13   12   14 2
    14   12   15 1
    15   15   16 1
    16   16   17 ar
    17   17   18 ar
    18   18   19 ar
    19   19   20 ar
    20   20   21 ar
    21   16   21 ar
    22   18   22 1
    23   22   23 1
    24   22   24 2
    25   10   25 1
    26   25   26 1
    27   25   27 1
    28   27   28 1
    29    6   29 1
    30   29   30 2
    31   29   31 am
    32   31   32 1
    33   32   33 1
    34   33   34 ar
    35   34   35 ar
    36   35   36 ar
    37   36   37 ar
    38   37   38 ar
    39   33   38 ar
    40   36   39 1
    41   39   40 1
    42   39   41 2
    43    1   42 1
    44    3   43 1
    45    3   44 1
    46    4   45 1
    47    4   46 1
    48    5   47 1
    49    5   48 1
    50    6   49 1
    51    7   50 1
    52   10   51 1
    53   11   52 1
    54   15   53 1
    55   15   54 1
    56   17   55 1
    57   19   56 1
    58   20   57 1
    59   21   58 1
    60   23   59 1
    61   25   60 1
    62   26   61 1
    63   26   62 1
    64   26   63 1
    65   27   64 1
    66   27   65 1
    67   28   66 1
    68   28   67 1
    69   28   68 1
    70   31   69 1
    71   32   70 1
    72   32   71 1
    73   34   72 1
    74   35   73 1
    75   37   74 1
    76   38   75 1
    77   40   76 1
    78   40   77 1
    79   41   78 1
@<TRIPOS>SUBSTRUCTURE
     1 <0>         1 GROUP 0 A     ****
@<TRIPOS>MOLECULE
501
   33    33     1     0     0
SMALL
NO_CHARGES

@<TRIPOS>ATOM
      1 S1          2.8795   -0.9075    0.0000 S         1 <0>        0.00000
      2 N1          2.3176   -3.5983    0.0000 NA        1 <0>        0.00000
      3 N2          3.5138    1.1812    0.0000 N         1 <0>        0.00000
      4 N3          1.9050   -2.3287    0.0000 NB        1 <0>        0.00000
      5 N4          3.6631    2.6024    0.0000 N         1 <0>        0.00000
      6 N5          2.3577    2.0211    0.0000 NB        1 <0>        0.00000
      7 N6          2.9920    4.1098    0.0000 NL        1 <0>        0.00000
      8 C1          2.7301   -2.3287    0.0000 CC        1 <0>        0.00000
      9 C2          3.2150   -1.6612    0.0000 CT        1 <0>        0.00000
     10 C3          3.3645   -0.2400    0.0000 CT        1 <0>        0.00000
     11 C4          3.0288    0.5137    0.0000 CT        1 <0>        0.00000
     12 C5          2.9850   -3.1133    0.0000 CW        1 <0>        0.00000
     13 C6          3.7697   -3.3683    0.0000 CT        1 <0>        0.00000
     14 C7          1.6501   -3.1133    0.0000 CR        1 <0>        0.00000
     15 C8          3.1782    1.9349    0.0000 C         1 <0>        0.00000
     16 C9          2.0221    2.7749    0.0000 CT        1 <0>        0.00000
     17 C10         3.3276    3.3561    0.0000 C2        1 <0>        0.00000
     18 H1          2.3176   -3.5983    0.0000 H         1 <0>        0.00000
     19 H2          3.5138    1.1812    0.0000 H         1 <0>        0.00000
     20 H3          3.6631    2.6024    0.0000 H         1 <0>        0.00000
     21 H4          3.2150   -1.6612    0.0000 H1        1 <0>        0.00000
     22 H5          3.2150   -1.6612    0.0000 H1        1 <0>        0.00000
     23 H6          3.3645   -0.2400    0.0000 H1        1 <0>        0.00000
     24 H7          3.3645   -0.2400    0.0000 H1        1 <0>        0.00000
     25 H8          3.0288    0.5137    0.0000 H1        1 <0>        0.00000
     26 H9          3.0288    0.5137    0.0000 H1        1 <0>        0.00000
     27 H10         3.7697   -3.3683    0.0000 HC        1 <0>        0.00000
     28 H11         3.7697   -3.3683    0.0000 HC        1 <0>        0.00000
     29 H12         3.7697   -3.3683    0.0000 HC        1 <0>        0.00000
     30 H13         1.6501   -3.1133    0.0000 H5        1 <0>        0.00000
     31 H14         2.0221    2.7749    0.0000 H1        1 <0>        0.00000
     32 H15         2.0221    2.7749    0.0000 H1        1 <0>        0.00000
     33 H16         2.0221    2.7749    0.0000 H1        1 <0>        0.00000
@<TRIPOS>BOND
     1    1    9 1
     2    1   10 1
     3    2   12 1
     4    2   14 1
     5    3   11 1
     6    3   15 1
     7    4    8 1
     8    4   14 2
     9    5   15 1
    10    5   17 1
    11    6   15 2
    12    6   16 1
    13    7   17 3
    14    8    9 1
    15    8   12 2
    16   10   11 1
    17   12   13 1
    18    2   18 1
    19    3   19 1
    20    5   20 1
    21    9   21 1
    22    9   22 1
    23   10   23 1
    24   10   24 1
    25   11   25 1
    26   11   26 1
    27   13   27 1
    28   13   28 1
    29   13   29 1
    30   14   30 1
    31   16   31 1
    32   16   32 1
    33   16   33 1
@<TRIPOS>SUBSTRUCTURE
     1 <0>         1 GROUP 0 A     ****
@<TRIPOS>MOLECULE
MiniDrugBank_192
   77    81     1     0     0
SMALL
NO_CHARGES

@<TRIPOS>ATOM
      1 C1         -4.7534    3.5889    0.0000 CT        1 <0>        0.00000
      2 N1         -4.3409    2.8744    0.0000 N3        1 <0>        0.00000
      3 C2         -5.0554    2.4619    0.0000 CT        1 <0>        0.00000
      4 C3         -3.6265    3.2869    0.0000 CT        1 <0>        0.00000
      5 C4         -3.9284    2.1599    0.0000 CA        1 <0>        0.00000
      6 C5         -3.1034    2.1599    0.0000 CA        1 <0>        0.00000
      7 C6         -2.6909    1.4455    0.0000 CA        1 <0>        0.00000
      8 C7         -3.1034    0.7310    0.0000 CA        1 <0>        0.00000
      9 C8         -2.6909    0.0165    0.0000 CT        1 <0>        0.00000
     10 N2         -1.8659    0.0165    0.0000 N         1 <0>        0.00000
     11 C9         -1.4534   -0.6979    0.0000 C         1 <0>        0.00000
     12 O1         -1.8659   -1.4124    0.0000 O         1 <0>        0.00000
     13 C10        -0.6284   -0.6979    0.0000 CW        1 <0>        0.00000
     14 C11        -0.1435   -1.3654    0.0000 CC        1 <0>        0.00000
     15 C12         0.6411   -1.1104    0.0000 CB        1 <0>        0.00000
     16 C13         0.6411   -0.2854    0.0000 CB        1 <0>        0.00000
     17 C14         1.3556    0.1271    0.0000 CA        1 <0>        0.00000
     18 C15         2.0701   -0.2854    0.0000 CA        1 <0>        0.00000
     19 C16         2.0701   -1.1104    0.0000 CA        1 <0>        0.00000
     20 O2          2.7845   -1.5229    0.0000 OS        1 <0>        0.00000
     21 C17         2.7845   -2.3479    0.0000 CT        1 <0>        0.00000
     22 C18         2.0701   -2.7604    0.0000 CA        1 <0>        0.00000
     23 C19         2.0701   -3.5854    0.0000 CA        1 <0>        0.00000
     24 C20         1.3556   -3.9979    0.0000 CA        1 <0>        0.00000
     25 C21         0.6411   -3.5854    0.0000 CA        1 <0>        0.00000
     26 C22         0.6411   -2.7604    0.0000 CA        1 <0>        0.00000
     27 C23         1.3556   -2.3479    0.0000 CA        1 <0>        0.00000
     28 C24         1.3556   -1.5229    0.0000 CA        1 <0>        0.00000
     29 N3         -0.1435   -0.0305    0.0000 N*        1 <0>        0.00000
     30 C25        -0.3984    0.7541    0.0000 CT        1 <0>        0.00000
     31 C26         0.1536    1.3672    0.0000 CA        1 <0>        0.00000
     32 C27        -0.1014    2.1518    0.0000 CA        1 <0>        0.00000
     33 C28         0.4507    2.7649    0.0000 CA        1 <0>        0.00000
     34 C29         1.2577    2.5934    0.0000 CA        1 <0>        0.00000
     35 C30         1.5126    1.8088    0.0000 CA        1 <0>        0.00000
     36 C31         0.9606    1.1957    0.0000 CA        1 <0>        0.00000
     37 C32         2.3196    1.6373    0.0000 C         1 <0>        0.00000
     38 N4          2.5745    0.8526    0.0000 N         1 <0>        0.00000
     39 N5          2.8716    2.2503    0.0000 NB        1 <0>        0.00000
     40 C33        -3.9284    0.7310    0.0000 CA        1 <0>        0.00000
     41 C34        -4.3409    1.4455    0.0000 CA        1 <0>        0.00000
     42 H1         -4.7534    3.5889    0.0000 HP        1 <0>        0.00000
     43 H2         -4.7534    3.5889    0.0000 HP        1 <0>        0.00000
     44 H3         -4.7534    3.5889    0.0000 HP        1 <0>        0.00000
     45 H4         -5.0554    2.4619    0.0000 HP        1 <0>        0.00000
     46 H5         -5.0554    2.4619    0.0000 HP        1 <0>        0.00000
     47 H6         -5.0554    2.4619    0.0000 HP        1 <0>        0.00000
     48 H7         -3.6265    3.2869    0.0000 HP        1 <0>        0.00000
     49 H8         -3.6265    3.2869    0.0000 HP        1 <0>        0.00000
     50 H9         -3.6265    3.2869    0.0000 HP        1 <0>        0.00000
     51 H10        -3.1034    2.1599    0.0000 HA        1 <0>        0.00000
     52 H11        -2.6909    1.4455    0.0000 HA        1 <0>        0.00000
     53 H12        -2.6909    0.0165    0.0000 H1        1 <0>        0.00000
     54 H13        -2.6909    0.0165    0.0000 H1        1 <0>        0.00000
     55 H14        -1.8659    0.0165    0.0000 H         1 <0>        0.00000
     56 H15        -0.1435   -1.3654    0.0000 HA        1 <0>        0.00000
     57 H16         1.3556    0.1271    0.0000 HA        1 <0>        0.00000
     58 H17         2.0701   -0.2854    0.0000 HA        1 <0>        0.00000
     59 H18         2.7845   -2.3479    0.0000 H1        1 <0>        0.00000
     60 H19         2.7845   -2.3479    0.0000 H1        1 <0>        0.00000
     61 H20         2.0701   -3.5854    0.0000 HA        1 <0>        0.00000
     62 H21         1.3556   -3.9979    0.0000 HA        1 <0>        0.00000
     63 H22         0.6411   -3.5854    0.0000 HA        1 <0>        0.00000
     64 H23         0.6411   -2.7604    0.0000 HA        1 <0>        0.00000
     65 H24         1.3556   -2.3479    0.0000 HA        1 <0>        0.00000
     66 H25         1.3556   -1.5229    0.0000 HA        1 <0>        0.00000
     67 H26        -0.3984    0.7541    0.0000 H1        1 <0>        0.00000
     68 H27        -0.3984    0.7541    0.0000 H1        1 <0>        0.00000
     69 H28        -0.1014    2.1518    0.0000 HA        1 <0>        0.00000
     70 H29         0.4507    2.7649    0.0000 HA        1 <0>        0.00000
     71 H30         1.2577    2.5934    0.0000 HA        1 <0>        0.00000
     72 H31         0.9606    1.1957    0.0000 HA        1 <0>        0.00000
     73 H32         2.5745    0.8526    0.0000 H         1 <0>        0.00000
     74 H33         2.5745    0.8526    0.0000 H         1 <0>        0.00000
     75 H34         2.8716    2.2503    0.0000 H         1 <0>        0.00000
     76 H35        -3.9284    0.7310    0.0000 HA        1 <0>        0.00000
     77 H36        -4.3409    1.4455    0.0000 HA        1 <0>        0.00000
@<TRIPOS>BOND
     1    1    2 1
     2    2    3 1
     3    2    4 1
     4    2    5 1
     5    5    6 ar
     6    6    7 ar
     7    7    8 ar
     8    8    9 1
     9    9   10 1
    10   10   11 am
    11   11   12 2
    12   11   13 1
    13   13   14 2
    14   14   15 1
    15   15   16 ar
    16   16   17 ar
    17   17   18 ar
    18   18   19 ar
    19   19   20 1
    20   20   21 1
    21   21   22 1
    22   22   23 ar
    23   23   24 ar
    24   24   25 ar
    25   25   26 ar
    26   26   27 ar
    27   22   27 ar
    28   19   28 ar
    29   15   28 ar
    30   16   29 1
    31   13   29 1
    32   29   30 1
    33   30   31 1
    34   31   32 ar
    35   32   33 ar
    36   33   34 ar
    37   34   35 ar
    38   35   36 ar
    39   31   36 ar
    40   35   37 1
    41   37   38 1
    42   37   39 2
    43    8   40 ar
    44   40   41 ar
    45    5   41 ar
    46    1   42 1
    47    1   43 1
    48    1   44 1
    49    3   45 1
    50    3   46 1
    51    3   47 1
    52    4   48 1
    53    4   49 1
    54    4   50 1
    55    6   51 1
    56    7   52 1
    57    9   53 1
    58    9   54 1
    59   10   55 1
    60   14   56 1
    61   17   57 1
    62   18   58 1
    63   21   59 1
    64   21   60 1
    65   23   61 1
    66   24   62 1
    67   25   63 1
    68   26   64 1
    69   27   65 1
    70   28   66 1
    71   30   67 1
    72   30   68 1
    73   32   69 1
    74   33   70 1
    75   34   71 1
    76   36   72 1
    77   38   73 1
    78   38   74 1
    79   39   75 1
    80   40   76 1
    81   41   77 1
@<TRIPOS>SUBSTRUCTURE
     1 <0>         1 GROUP 0 A     ****
@<TRIPOS>MOLECULE
MiniDrugBank_193
   61    65     1     0     0
SMALL
NO_CHARGES

@<TRIPOS>ATOM
      1 C1         -2.9056   -2.0855    0.0000 CT        1 <0>        0.00000
      2 C2         -2.7424   -1.2786    0.0000 CT        1 <0>        0.00000
      3 O1         -2.7523   -0.4550    0.0000 OS        1 <0>        0.00000
      4 C3         -1.9679   -0.1956    0.0000 CT        1 <0>        0.00000
      5 C4         -1.4875    0.4798    0.0000 CT        1 <0>        0.00000
      6 C5         -0.7049    0.2347    0.0000 CT        1 <0>        0.00000
      7 C6          0.0066    0.6515    0.0000 CT        1 <0>        0.00000
      8 C7         -0.0032    1.4753    0.0000 CT        1 <0>        0.00000
      9 C8          0.7040    1.8964    0.0000 CT        1 <0>        0.00000
     10 C9          1.4257    1.4894    0.0000 CM        1 <0>        0.00000
     11 C10         2.1331    1.9107    0.0000 CM        1 <0>        0.00000
     12 C11         2.8548    1.5039    0.0000 C         1 <0>        0.00000
     13 O2          3.5665    1.9250    0.0000 O         1 <0>        0.00000
     14 C12         2.8612    0.6822    0.0000 CM        1 <0>        0.00000
     15 C13         2.1537    0.2610    0.0000 CM        1 <0>        0.00000
     16 C14         1.4322    0.6637    0.0000 CT        1 <0>        0.00000
     17 C15         0.7203    0.2468    0.0000 CT        1 <0>        0.00000
     18 C16         0.7347   -0.5768    0.0000 CT        1 <0>        0.00000
     19 C17         0.0230   -0.9938    0.0000 CT        1 <0>        0.00000
     20 C18        -0.6986   -0.5911    0.0000 CT        1 <0>        0.00000
     21 C19        -1.4788   -0.8545    0.0000 CT        1 <0>        0.00000
     22 O3         -1.9554   -1.5236    0.0000 OS        1 <0>        0.00000
     23 C20        -0.8871   -2.0326    0.0000 C         1 <0>        0.00000
     24 O4         -0.0638   -2.0815    0.0000 O         1 <0>        0.00000
     25 C21        -1.3443   -2.7224    0.0000 CT        1 <0>        0.00000
     26 O5         -2.1674   -2.6735    0.0000 OH        1 <0>        0.00000
     27 C22        -0.6269   -1.4151    0.0000 CT        1 <0>        0.00000
     28 Cl1         1.2647   -1.2047    0.0000 CL        1 <0>        0.00000
     29 Cl2         1.8773   -0.4012    0.0000 CL        1 <0>        0.00000
     30 F1          0.6976    2.7224    0.0000 F         1 <0>        0.00000
     31 C23        -3.5665   -1.2025    0.0000 CT        1 <0>        0.00000
     32 C24         0.6781    1.1010    0.0000 CT        1 <0>        0.00000
     33 H1         -0.7130    1.0882    0.0000 HC        1 <0>        0.00000
     34 H2         -2.5765    0.4096    0.0000 H1        1 <0>        0.00000
     35 H3         -0.0002   -0.1956    0.0000 HC        1 <0>        0.00000
     36 H4         -2.9056   -2.0855    0.0000 HC        1 <0>        0.00000
     37 H5         -2.9056   -2.0855    0.0000 HC        1 <0>        0.00000
     38 H6         -2.9056   -2.0855    0.0000 HC        1 <0>        0.00000
     39 H7         -1.4875    0.4798    0.0000 HC        1 <0>        0.00000
     40 H8         -1.4875    0.4798    0.0000 HC        1 <0>        0.00000
     41 H9         -0.0032    1.4753    0.0000 HC        1 <0>        0.00000
     42 H10        -0.0032    1.4753    0.0000 HC        1 <0>        0.00000
     43 H11         0.7040    1.8964    0.0000 H1        1 <0>        0.00000
     44 H12         2.1331    1.9107    0.0000 HA        1 <0>        0.00000
     45 H13         2.8612    0.6822    0.0000 HA        1 <0>        0.00000
     46 H14         2.1537    0.2610    0.0000 HA        1 <0>        0.00000
     47 H15         0.7347   -0.5768    0.0000 H1        1 <0>        0.00000
     48 H16         0.0230   -0.9938    0.0000 HC        1 <0>        0.00000
     49 H17         0.0230   -0.9938    0.0000 HC        1 <0>        0.00000
     50 H18        -1.3443   -2.7224    0.0000 H1        1 <0>        0.00000
     51 H19        -1.3443   -2.7224    0.0000 H1        1 <0>        0.00000
     52 H20        -2.1674   -2.6735    0.0000 HO        1 <0>        0.00000
     53 H21        -0.6269   -1.4151    0.0000 HC        1 <0>        0.00000
     54 H22        -0.6269   -1.4151    0.0000 HC        1 <0>        0.00000
     55 H23        -0.6269   -1.4151    0.0000 HC        1 <0>        0.00000
     56 H24        -3.5665   -1.2025    0.0000 HC        1 <0>        0.00000
     57 H25        -3.5665   -1.2025    0.0000 HC        1 <0>        0.00000
     58 H26        -3.5665   -1.2025    0.0000 HC        1 <0>        0.00000
     59 H27         0.6781    1.1010    0.0000 HC        1 <0>        0.00000
     60 H28         0.6781    1.1010    0.0000 HC        1 <0>        0.00000
     61 H29         0.6781    1.1010    0.0000 HC        1 <0>        0.00000
@<TRIPOS>BOND
     1    4    5 1
     2    5    6 1
     3    6    7 1
     4    7    8 1
     5    8    9 1
     6    9   10 1
     7   10   11 2
     8   11   12 1
     9   12   13 2
    10   12   14 1
    11   14   15 2
    12   15   16 1
    13   10   16 1
    14   16   17 1
    15    7   17 1
    16   17   18 1
    17   18   19 1
    18   19   20 1
    19    6   20 1
    20   20   21 1
    21    4   21 1
    22   21   22 1
    23    2   22 1
    24   21   23 1
    25   23   24 2
    26   23   25 1
    27   25   26 1
    28   20   27 1
    29   18   28 1
    30   17   29 1
    31    9   30 1
    32    2   31 1
    33   16   32 1
    34    1    2 1
    35    6   33 1
    36    2    3 1
    37    4   34 1
    38    3    4 1
    39    7   35 1
    40    1   36 1
    41    1   37 1
    42    1   38 1
    43    5   39 1
    44    5   40 1
    45    8   41 1
    46    8   42 1
    47    9   43 1
    48   11   44 1
    49   14   45 1
    50   15   46 1
    51   18   47 1
    52   19   48 1
    53   19   49 1
    54   25   50 1
    55   25   51 1
    56   26   52 1
    57   27   53 1
    58   27   54 1
    59   27   55 1
    60   31   56 1
    61   31   57 1
    62   31   58 1
    63   32   59 1
    64   32   60 1
    65   32   61 1
@<TRIPOS>SUBSTRUCTURE
     1 <0>         1 GROUP 0 A     ****
@<TRIPOS>MOLECULE
3033968
   49    52     1     0     0
SMALL
NO_CHARGES

@<TRIPOS>ATOM
      1 O1          6.6263    1.5550    0.0000 OH        1 <0>        0.00000
      2 O2          1.6500   -1.9996    0.0000 O         1 <0>        0.00000
      3 C1          6.0993    0.5186    0.0000 CT        1 <0>        0.00000
      4 C2          5.3849   -0.7189    0.0000 CT        1 <0>        0.00000
      5 C3          6.0993   -0.3064    0.0000 CT        1 <0>        0.00000
      6 C4          4.6703   -0.3064    0.0000 CT        1 <0>        0.00000
      7 C5          5.3849    0.9311    0.0000 CT        1 <0>        0.00000
      8 C6          4.6703    0.5186    0.0000 CT        1 <0>        0.00000
      9 C7          3.9196   -0.7246    0.0000 CT        1 <0>        0.00000
     10 C8          6.8799    0.7700    0.0000 CT        1 <0>        0.00000
     11 C9          5.3981   -1.5782    0.0000 CT        1 <0>        0.00000
     12 C10         6.0993    1.3436    0.0000 CT        1 <0>        0.00000
     13 C11         6.8799   -0.5579    0.0000 CM        1 <0>        0.00000
     14 C12         3.9130   -1.5839    0.0000 CM        1 <0>        0.00000
     15 C13         4.6572   -2.0136    0.0000 CT        1 <0>        0.00000
     16 C14         7.3614    0.1061    0.0000 CM        1 <0>        0.00000
     17 C15         3.1550   -0.2592    0.0000 CT        1 <0>        0.00000
     18 C16         5.3849    1.7561    0.0000 CT        1 <0>        0.00000
     19 C17         2.3729   -0.6948    0.0000 CT        1 <0>        0.00000
     20 C18         3.1413   -2.0374    0.0000 CM        1 <0>        0.00000
     21 C19         7.5482    1.2538    0.0000 C2        1 <0>        0.00000
     22 C20         2.3661   -1.5899    0.0000 C         1 <0>        0.00000
     23 C21         8.2165    1.7375    0.0000 C2        1 <0>        0.00000
     24 H1          6.6263    1.5550    0.0000 HO        1 <0>        0.00000
     25 H2          5.3849   -0.7189    0.0000 HC        1 <0>        0.00000
     26 H3          6.0993   -0.3064    0.0000 HC        1 <0>        0.00000
     27 H4          4.6703   -0.3064    0.0000 HC        1 <0>        0.00000
     28 H5          5.3849    0.9311    0.0000 HC        1 <0>        0.00000
     29 H6          5.3849    0.9311    0.0000 HC        1 <0>        0.00000
     30 H7          4.6703    0.5186    0.0000 HC        1 <0>        0.00000
     31 H8          4.6703    0.5186    0.0000 HC        1 <0>        0.00000
     32 H9          3.9196   -0.7246    0.0000 HC        1 <0>        0.00000
     33 H10         5.3981   -1.5782    0.0000 HC        1 <0>        0.00000
     34 H11         5.3981   -1.5782    0.0000 HC        1 <0>        0.00000
     35 H12         6.0993    1.3436    0.0000 HC        1 <0>        0.00000
     36 H13         6.0993    1.3436    0.0000 HC        1 <0>        0.00000
     37 H14         6.8799   -0.5579    0.0000 HA        1 <0>        0.00000
     38 H15         4.6572   -2.0136    0.0000 HC        1 <0>        0.00000
     39 H16         4.6572   -2.0136    0.0000 HC        1 <0>        0.00000
     40 H17         7.3614    0.1061    0.0000 HA        1 <0>        0.00000
     41 H18         3.1550   -0.2592    0.0000 HC        1 <0>        0.00000
     42 H19         3.1550   -0.2592    0.0000 HC        1 <0>        0.00000
     43 H20         5.3849    1.7561    0.0000 HC        1 <0>        0.00000
     44 H21         5.3849    1.7561    0.0000 HC        1 <0>        0.00000
     45 H22         5.3849    1.7561    0.0000 HC        1 <0>        0.00000
     46 H23         2.3729   -0.6948    0.0000 HC        1 <0>        0.00000
     47 H24         2.3729   -0.6948    0.0000 HC        1 <0>        0.00000
     48 H25         3.1413   -2.0374    0.0000 HA        1 <0>        0.00000
     49 H26         8.2165    1.7375    0.0000 HC        1 <0>        0.00000
@<TRIPOS>BOND
     1    1   10 1
     2    2   22 2
     3    3    5 1
     4    3    7 1
     5    3   10 1
     6    3   12 1
     7    4    5 1
     8    4    6 1
     9    4   11 1
    10    5   13 1
    11    6    8 1
    12    6    9 1
    13    7    8 1
    14    9   14 1
    15    9   17 1
    16   10   16 1
    17   10   21 1
    18   11   15 1
    19   12   18 1
    20   13   16 2
    21   14   15 1
    22   14   20 2
    23   17   19 1
    24   19   22 1
    25   20   22 1
    26   21   23 3
    27    1   24 1
    28    4   25 1
    29    5   26 1
    30    6   27 1
    31    7   28 1
    32    7   29 1
    33    8   30 1
    34    8   31 1
    35    9   32 1
    36   11   33 1
    37   11   34 1
    38   12   35 1
    39   12   36 1
    40   13   37 1
    41   15   38 1
    42   15   39 1
    43   16   40 1
    44   17   41 1
    45   17   42 1
    46   18   43 1
    47   18   44 1
    48   18   45 1
    49   19   46 1
    50   19   47 1
    51   20   48 1
    52   23   49 1
@<TRIPOS>SUBSTRUCTURE
     1 <0>         1 GROUP 0 A     ****
@<TRIPOS>MOLECULE
BIP
   24    24     1     0     0
SMALL
NO_CHARGES

@<TRIPOS>ATOM
      1 C1          1.5808    1.1185    0.0000 C         1 <0>        0.00000
      2 O1          1.5808    1.9435    0.0000 O         1 <0>        0.00000
      3 O2          2.2953    0.7060    0.0000 OH        1 <0>        0.00000
      4 C2          0.8663    0.7060    0.0000 CT        1 <0>        0.00000
      5 C3          0.1518    1.1185    0.0000 CT        1 <0>        0.00000
      6 I1         -0.5626    0.7060    0.0000 I         1 <0>        0.00000
      7 C4          0.8663   -0.1190    0.0000 CT        1 <0>        0.00000
      8 C5          0.1518   -0.5315    0.0000 CA        1 <0>        0.00000
      9 C6          0.1518   -1.3565    0.0000 CA        1 <0>        0.00000
     10 C7         -0.5626   -1.7690    0.0000 CA        1 <0>        0.00000
     11 C8         -1.2771   -1.3565    0.0000 CA        1 <0>        0.00000
     12 C9         -1.2771   -0.5315    0.0000 CA        1 <0>        0.00000
     13 C10        -0.5626   -0.1190    0.0000 CA        1 <0>        0.00000
     14 H1          0.8663    1.2899    0.0000 HC        1 <0>        0.00000
     15 H2          2.2953    0.7060    0.0000 HO        1 <0>        0.00000
     16 H3          0.1518    1.1185    0.0000 HC        1 <0>        0.00000
     17 H4          0.1518    1.1185    0.0000 HC        1 <0>        0.00000
     18 H5          0.8663   -0.1190    0.0000 HC        1 <0>        0.00000
     19 H6          0.8663   -0.1190    0.0000 HC        1 <0>        0.00000
     20 H7          0.1518   -1.3565    0.0000 HA        1 <0>        0.00000
     21 H8         -0.5626   -1.7690    0.0000 HA        1 <0>        0.00000
     22 H9         -1.2771   -1.3565    0.0000 HA        1 <0>        0.00000
     23 H10        -1.2771   -0.5315    0.0000 HA        1 <0>        0.00000
     24 H11        -0.5626   -0.1190    0.0000 HA        1 <0>        0.00000
@<TRIPOS>BOND
     1    1    2 2
     2    1    3 1
     3    1    4 1
     4    4    5 1
     5    4    7 1
     6    4   14 1
     7    5    6 1
     8    7    8 1
     9    8    9 ar
    10    8   13 ar
    11    9   10 ar
    12   10   11 ar
    13   11   12 ar
    14   12   13 ar
    15    3   15 1
    16    5   16 1
    17    5   17 1
    18    7   18 1
    19    7   19 1
    20    9   20 1
    21   10   21 1
    22   11   22 1
    23   12   23 1
    24   13   24 1
@<TRIPOS>SUBSTRUCTURE
     1 <0>         1 GROUP 0 A     ****
@<TRIPOS>MOLECULE
MiniDrugBank_196
   33    33     1     0     0
SMALL
NO_CHARGES

@<TRIPOS>ATOM
      1 C1         -0.4950   -3.2926    0.0000 CT        1 <0>        0.00000
      2 C2          0.0884   -2.7092    0.0000 CT        1 <0>        0.00000
      3 C3          0.6718   -3.2926    0.0000 CT        1 <0>        0.00000
      4 N1          0.4582   -4.0895    0.0000 N*        1 <0>        0.00000
      5 C4          0.9774   -4.7306    0.0000 CW        1 <0>        0.00000
      6 C5          0.5281   -5.4225    0.0000 CC        1 <0>        0.00000
      7 N2         -0.2688   -5.2090    0.0000 NB        1 <0>        0.00000
      8 N3         -0.3120   -4.3852    0.0000 NB        1 <0>        0.00000
      9 C6         -0.4950   -2.1259    0.0000 CT        1 <0>        0.00000
     10 N4         -0.2814   -1.3290    0.0000 N         1 <0>        0.00000
     11 C7         -0.8648   -0.7456    0.0000 CM        1 <0>        0.00000
     12 C8         -0.6513    0.0513    0.0000 CM        1 <0>        0.00000
     13 C9         -1.2346    0.6346    0.0000 C         1 <0>        0.00000
     14 O1         -2.0315    0.4211    0.0000 O         1 <0>        0.00000
     15 C10        -1.2919   -2.3394    0.0000 C         1 <0>        0.00000
     16 O2         -1.5054   -3.1363    0.0000 OH        1 <0>        0.00000
     17 O3         -1.8752   -1.7560    0.0000 O         1 <0>        0.00000
     18 S1          0.6718   -2.1259    0.0000 SO        1 <0>        0.00000
     19 O4          0.4582   -1.3290    0.0000 O2        1 <0>        0.00000
     20 O5          1.4686   -2.3394    0.0000 O2        1 <0>        0.00000
     21 H1         -0.4950   -3.2926    0.0000 HC        1 <0>        0.00000
     22 H2         -0.4950   -3.2926    0.0000 HC        1 <0>        0.00000
     23 H3         -0.4950   -3.2926    0.0000 HC        1 <0>        0.00000
     24 H4          0.6718   -3.2926    0.0000 H1        1 <0>        0.00000
     25 H5          0.6718   -3.2926    0.0000 H1        1 <0>        0.00000
     26 H6          0.9774   -4.7306    0.0000 H4        1 <0>        0.00000
     27 H7          0.5281   -5.4225    0.0000 H4        1 <0>        0.00000
     28 H8         -0.4950   -2.1259    0.0000 H1        1 <0>        0.00000
     29 H9         -0.2814   -1.3290    0.0000 H         1 <0>        0.00000
     30 H10        -0.8648   -0.7456    0.0000 H4        1 <0>        0.00000
     31 H11        -0.6513    0.0513    0.0000 HA        1 <0>        0.00000
     32 H12        -1.2346    0.6346    0.0000 H4        1 <0>        0.00000
     33 H13        -1.5054   -3.1363    0.0000 HO        1 <0>        0.00000
@<TRIPOS>BOND
     1    1    2 1
     2    2    3 1
     3    3    4 1
     4    4    5 1
     5    5    6 2
     6    6    7 1
     7    7    8 2
     8    4    8 1
     9    2    9 1
    10    9   10 1
    11   10   11 1
    12   11   12 2
    13   12   13 1
    14   13   14 2
    15    9   15 1
    16   15   16 1
    17   15   17 2
    18    2   18 1
    19   18   19 2
    20   18   20 2
    21    1   21 1
    22    1   22 1
    23    1   23 1
    24    3   24 1
    25    3   25 1
    26    5   26 1
    27    6   27 1
    28    9   28 1
    29   10   29 1
    30   11   30 1
    31   12   31 1
    32   13   32 1
    33   16   33 1
@<TRIPOS>SUBSTRUCTURE
     1 <0>         1 GROUP 0 A     ****
@<TRIPOS>MOLECULE
MiniDrugBank_197
   15    14     1     0     0
SMALL
NO_CHARGES

@<TRIPOS>ATOM
      1 O1         -0.1914    0.7145    0.0000 OH        1 <0>        0.00000
      2 C1          0.5230    1.1270    0.0000 CT        1 <0>        0.00000
      3 C2          1.2375    0.7145    0.0000 CT        1 <0>        0.00000
      4 O2          1.2375   -0.1105    0.0000 OH        1 <0>        0.00000
      5 C3          1.9520    1.1270    0.0000 CT        1 <0>        0.00000
      6 S1          2.6664    0.7145    0.0000 S         1 <0>        0.00000
      7 O3          3.3809    1.1270    0.0000 OH        1 <0>        0.00000
      8 H1         -0.1914    0.7145    0.0000 HO        1 <0>        0.00000
      9 H2          0.5230    1.1270    0.0000 H1        1 <0>        0.00000
     10 H3          0.5230    1.1270    0.0000 H1        1 <0>        0.00000
     11 H4          1.2375    0.7145    0.0000 H1        1 <0>        0.00000
     12 H5          1.2375   -0.1105    0.0000 HO        1 <0>        0.00000
     13 H6          1.9520    1.1270    0.0000 H1        1 <0>        0.00000
     14 H7          1.9520    1.1270    0.0000 H1        1 <0>        0.00000
     15 H8          3.3809    1.1270    0.0000 HO        1 <0>        0.00000
@<TRIPOS>BOND
     1    1    2 1
     2    2    3 1
     3    3    4 1
     4    3    5 1
     5    5    6 1
     6    6    7 1
     7    1    8 1
     8    2    9 1
     9    2   10 1
    10    3   11 1
    11    4   12 1
    12    5   13 1
    13    5   14 1
    14    7   15 1
@<TRIPOS>SUBSTRUCTURE
     1 <0>         1 GROUP 0 A     ****
@<TRIPOS>MOLECULE
PU9
   51    53     1     0     0
SMALL
NO_CHARGES

@<TRIPOS>ATOM
      1 Cl1         0.2648   -2.1853    0.0000 CL        1 <0>        0.00000
      2 C1         -0.3483   -1.6333    0.0000 CA        1 <0>        0.00000
      3 C2         -1.1330   -1.8882    0.0000 CA        1 <0>        0.00000
      4 O1         -1.3045   -2.6952    0.0000 OS        1 <0>        0.00000
      5 C3         -2.0891   -2.9501    0.0000 CT        1 <0>        0.00000
      6 C4         -1.7461   -1.3362    0.0000 CA        1 <0>        0.00000
      7 O2         -2.5307   -1.5911    0.0000 OS        1 <0>        0.00000
      8 C5         -3.1438   -1.0391    0.0000 CT        1 <0>        0.00000
      9 C6         -1.5745   -0.5292    0.0000 CA        1 <0>        0.00000
     10 O3         -2.1876    0.0228    0.0000 OS        1 <0>        0.00000
     11 C7         -2.0161    0.8298    0.0000 CT        1 <0>        0.00000
     12 C8         -0.7899   -0.2743    0.0000 CA        1 <0>        0.00000
     13 C9         -0.1768   -0.8263    0.0000 CA        1 <0>        0.00000
     14 C10         0.6078   -0.5714    0.0000 CT        1 <0>        0.00000
     15 C11         0.7793    0.2356    0.0000 CR        1 <0>        0.00000
     16 N1          0.2273    0.8487    0.0000 NB        1 <0>        0.00000
     17 C12         0.6398    1.5632    0.0000 CB        1 <0>        0.00000
     18 C13         0.3849    2.3478    0.0000 CA        1 <0>        0.00000
     19 N2         -0.4221    2.5193    0.0000 N2        1 <0>        0.00000
     20 C14         1.4468    1.3916    0.0000 CB        1 <0>        0.00000
     21 N3          1.9988    2.0047    0.0000 NC        1 <0>        0.00000
     22 C15         1.7439    2.7894    0.0000 CA        1 <0>        0.00000
     23 N4          0.9369    2.9609    0.0000 NC        1 <0>        0.00000
     24 N5          1.5330    0.5712    0.0000 N*        1 <0>        0.00000
     25 C16         2.2475    0.1587    0.0000 CT        1 <0>        0.00000
     26 C17         2.9619    0.5712    0.0000 CT        1 <0>        0.00000
     27 C18         3.6764    0.1587    0.0000 CT        1 <0>        0.00000
     28 C19         4.3909    0.5712    0.0000 C2        1 <0>        0.00000
     29 C20         5.1054    0.9837    0.0000 C2        1 <0>        0.00000
     30 H1         -2.0891   -2.9501    0.0000 H1        1 <0>        0.00000
     31 H2         -2.0891   -2.9501    0.0000 H1        1 <0>        0.00000
     32 H3         -2.0891   -2.9501    0.0000 H1        1 <0>        0.00000
     33 H4         -3.1438   -1.0391    0.0000 H1        1 <0>        0.00000
     34 H5         -3.1438   -1.0391    0.0000 H1        1 <0>        0.00000
     35 H6         -3.1438   -1.0391    0.0000 H1        1 <0>        0.00000
     36 H7         -2.0161    0.8298    0.0000 H1        1 <0>        0.00000
     37 H8         -2.0161    0.8298    0.0000 H1        1 <0>        0.00000
     38 H9         -2.0161    0.8298    0.0000 H1        1 <0>        0.00000
     39 H10        -0.7899   -0.2743    0.0000 HA        1 <0>        0.00000
     40 H11         0.6078   -0.5714    0.0000 HC        1 <0>        0.00000
     41 H12         0.6078   -0.5714    0.0000 HC        1 <0>        0.00000
     42 H13        -0.4221    2.5193    0.0000 H         1 <0>        0.00000
     43 H14        -0.4221    2.5193    0.0000 H         1 <0>        0.00000
     44 H15         1.7439    2.7894    0.0000 H5        1 <0>        0.00000
     45 H16         2.2475    0.1587    0.0000 H1        1 <0>        0.00000
     46 H17         2.2475    0.1587    0.0000 H1        1 <0>        0.00000
     47 H18         2.9619    0.5712    0.0000 HC        1 <0>        0.00000
     48 H19         2.9619    0.5712    0.0000 HC        1 <0>        0.00000
     49 H20         3.6764    0.1587    0.0000 HC        1 <0>        0.00000
     50 H21         3.6764    0.1587    0.0000 HC        1 <0>        0.00000
     51 H22         5.1054    0.9837    0.0000 HC        1 <0>        0.00000
@<TRIPOS>BOND
     1    1    2 1
     2    2    3 ar
     3    2   13 ar
     4    3    4 1
     5    3    6 ar
     6    4    5 1
     7    6    7 1
     8    6    9 ar
     9    7    8 1
    10    9   10 1
    11    9   12 ar
    12   10   11 1
    13   12   13 ar
    14   13   14 1
    15   14   15 1
    16   15   16 2
    17   15   24 1
    18   16   17 1
    19   17   18 ar
    20   17   20 ar
    21   18   19 1
    22   18   23 ar
    23   20   21 ar
    24   20   24 1
    25   21   22 ar
    26   22   23 ar
    27   24   25 1
    28   25   26 1
    29   26   27 1
    30   27   28 1
    31   28   29 3
    32    5   30 1
    33    5   31 1
    34    5   32 1
    35    8   33 1
    36    8   34 1
    37    8   35 1
    38   11   36 1
    39   11   37 1
    40   11   38 1
    41   12   39 1
    42   14   40 1
    43   14   41 1
    44   19   42 1
    45   19   43 1
    46   22   44 1
    47   25   45 1
    48   25   46 1
    49   26   47 1
    50   26   48 1
    51   27   49 1
    52   27   50 1
    53   29   51 1
@<TRIPOS>SUBSTRUCTURE
     1 <0>         1 GROUP 0 A     ****
@<TRIPOS>MOLECULE
NBL
   52    53     1     0     0
SMALL
NO_CHARGES

@<TRIPOS>ATOM
      1 C1          0.7792   -1.9404    0.0000 CT        1 <0>        0.00000
      2 C2          0.7792   -1.1154    0.0000 CT        1 <0>        0.00000
      3 C3          1.4937   -0.7029    0.0000 CT        1 <0>        0.00000
      4 C4          0.0647   -0.7029    0.0000 CT        1 <0>        0.00000
      5 C5          0.0647    0.1221    0.0000 CT        1 <0>        0.00000
      6 N1         -0.6497    0.5346    0.0000 N         1 <0>        0.00000
      7 C6         -1.3642    0.1221    0.0000 C         1 <0>        0.00000
      8 O1         -1.3642   -0.7029    0.0000 O         1 <0>        0.00000
      9 O2         -2.0787    0.5346    0.0000 OS        1 <0>        0.00000
     10 C7         -2.7932    0.1221    0.0000 CT        1 <0>        0.00000
     11 C8         -3.5076    0.5346    0.0000 CA        1 <0>        0.00000
     12 C9         -4.2221    0.1221    0.0000 CA        1 <0>        0.00000
     13 C10        -4.9366    0.5346    0.0000 CA        1 <0>        0.00000
     14 C11        -4.9366    1.3596    0.0000 CA        1 <0>        0.00000
     15 C12        -4.2221    1.7721    0.0000 CA        1 <0>        0.00000
     16 C13        -3.5076    1.3596    0.0000 CA        1 <0>        0.00000
     17 C14         0.7792    0.5346    0.0000 C         1 <0>        0.00000
     18 O3          0.7792    1.3596    0.0000 O         1 <0>        0.00000
     19 N2          1.4937    0.1221    0.0000 N         1 <0>        0.00000
     20 C15         2.2081    0.5346    0.0000 CT        1 <0>        0.00000
     21 C16         2.2944    1.3551    0.0000 CT        1 <0>        0.00000
     22 C17         3.1013    1.5266    0.0000 CT        1 <0>        0.00000
     23 N3          3.5138    0.8121    0.0000 N3        1 <0>        0.00000
     24 C18         2.9618    0.1990    0.0000 CT        1 <0>        0.00000
     25 C19         4.3343    0.7259    0.0000 C2        1 <0>        0.00000
     26 N4          5.1548    0.6397    0.0000 NL        1 <0>        0.00000
     27 H1         -0.4410   -0.1699    0.0000 H1        1 <0>        0.00000
     28 H2          1.7184    0.8526    0.0000 H1        1 <0>        0.00000
     29 H3          0.7792   -1.9404    0.0000 HC        1 <0>        0.00000
     30 H4          0.7792   -1.9404    0.0000 HC        1 <0>        0.00000
     31 H5          0.7792   -1.9404    0.0000 HC        1 <0>        0.00000
     32 H6          0.7792   -1.1154    0.0000 HC        1 <0>        0.00000
     33 H7          1.4937   -0.7029    0.0000 HC        1 <0>        0.00000
     34 H8          1.4937   -0.7029    0.0000 HC        1 <0>        0.00000
     35 H9          1.4937   -0.7029    0.0000 HC        1 <0>        0.00000
     36 H10         0.0647   -0.7029    0.0000 HC        1 <0>        0.00000
     37 H11         0.0647   -0.7029    0.0000 HC        1 <0>        0.00000
     38 H12        -0.6497    0.5346    0.0000 H         1 <0>        0.00000
     39 H13        -2.7932    0.1221    0.0000 H1        1 <0>        0.00000
     40 H14        -2.7932    0.1221    0.0000 H1        1 <0>        0.00000
     41 H15        -4.2221    0.1221    0.0000 HA        1 <0>        0.00000
     42 H16        -4.9366    0.5346    0.0000 HA        1 <0>        0.00000
     43 H17        -4.9366    1.3596    0.0000 HA        1 <0>        0.00000
     44 H18        -4.2221    1.7721    0.0000 HA        1 <0>        0.00000
     45 H19        -3.5076    1.3596    0.0000 HA        1 <0>        0.00000
     46 H20         1.4937    0.1221    0.0000 H         1 <0>        0.00000
     47 H21         2.2944    1.3551    0.0000 HC        1 <0>        0.00000
     48 H22         2.2944    1.3551    0.0000 HC        1 <0>        0.00000
     49 H23         3.1013    1.5266    0.0000 H1        1 <0>        0.00000
     50 H24         3.1013    1.5266    0.0000 H1        1 <0>        0.00000
     51 H25         2.9618    0.1990    0.0000 H1        1 <0>        0.00000
     52 H26         2.9618    0.1990    0.0000 H1        1 <0>        0.00000
@<TRIPOS>BOND
     1    1    2 1
     2    2    3 1
     3    2    4 1
     4    4    5 1
     5    5    6 1
     6    5   17 1
     7    5   27 1
     8    6    7 am
     9    7    8 2
    10    7    9 1
    11    9   10 1
    12   10   11 1
    13   11   12 ar
    14   11   16 ar
    15   12   13 ar
    16   13   14 ar
    17   14   15 ar
    18   15   16 ar
    19   17   18 2
    20   17   19 am
    21   19   20 1
    22   20   21 1
    23   20   24 1
    24   20   28 1
    25   21   22 1
    26   22   23 1
    27   23   24 1
    28   23   25 1
    29   25   26 3
    30    1   29 1
    31    1   30 1
    32    1   31 1
    33    2   32 1
    34    3   33 1
    35    3   34 1
    36    3   35 1
    37    4   36 1
    38    4   37 1
    39    6   38 1
    40   10   39 1
    41   10   40 1
    42   12   41 1
    43   13   42 1
    44   14   43 1
    45   15   44 1
    46   16   45 1
    47   19   46 1
    48   21   47 1
    49   21   48 1
    50   22   49 1
    51   22   50 1
    52   24   51 1
    53   24   52 1
@<TRIPOS>SUBSTRUCTURE
     1 <0>         1 GROUP 0 A     ****
@<TRIPOS>MOLECULE
MiniDrugBank_200
   10     9     1     0     0
SMALL
NO_CHARGES

@<TRIPOS>ATOM
      1 P1          2.8075   -0.2615    0.0000 P         1 <0>        0.00000
      2 O1          2.0930   -0.6740    0.0000 OH        1 <0>        0.00000
      3 O2          2.3950    0.4529    0.0000 OH        1 <0>        0.00000
      4 O3          3.2200   -0.9760    0.0000 O         1 <0>        0.00000
      5 O4          4.2365   -0.2615    0.0000 OH        1 <0>        0.00000
      6 O5          3.5220    0.9760    0.0000 O         1 <0>        0.00000
      7 C1          3.5220    0.1510    0.0000 C         1 <0>        0.00000
      8 H1          2.0930   -0.6740    0.0000 HO        1 <0>        0.00000
      9 H2          2.3950    0.4529    0.0000 HO        1 <0>        0.00000
     10 H3          4.2365   -0.2615    0.0000 HO        1 <0>        0.00000
@<TRIPOS>BOND
     1    1    2 1
     2    1    3 1
     3    1    4 2
     4    1    7 1
     5    5    7 1
     6    6    7 2
     7    2    8 1
     8    3    9 1
     9    5   10 1
@<TRIPOS>SUBSTRUCTURE
     1 <0>         1 GROUP 0 A     ****
@<TRIPOS>MOLECULE
530
   52    54     1     0     0
SMALL
NO_CHARGES

@<TRIPOS>ATOM
      1 O1          4.5080    0.2782    0.0000 OS        1 <0>        0.00000
      2 O2          4.5080    1.9282    0.0000 OS        1 <0>        0.00000
      3 O3          2.3645    0.6907    0.0000 OS        1 <0>        0.00000
      4 O4          3.7935    3.9908    0.0000 OS        1 <0>        0.00000
      5 N1          7.3795   -0.5754    0.0000 N2        1 <0>        0.00000
      6 N2          7.3889    1.9568    0.0000 NC        1 <0>        0.00000
      7 N3          8.1365    0.6735    0.0000 NC        1 <0>        0.00000
      8 C1          6.6515    0.6907    0.0000 CB        1 <0>        0.00000
      9 C2          6.6515    1.5157    0.0000 CB        1 <0>        0.00000
     10 C3          5.2224    0.6907    0.0000 CA        1 <0>        0.00000
     11 C4          5.2224    1.5157    0.0000 CA        1 <0>        0.00000
     12 C5          5.9370    0.2782    0.0000 CA        1 <0>        0.00000
     13 C6          7.3889    0.2496    0.0000 CA        1 <0>        0.00000
     14 C7          5.9370    1.9282    0.0000 CA        1 <0>        0.00000
     15 C8          3.7935    0.6907    0.0000 CT        1 <0>        0.00000
     16 C9          8.0891   -0.9961    0.0000 CA        1 <0>        0.00000
     17 C10         4.5080    2.7533    0.0000 CT        1 <0>        0.00000
     18 C11         8.1365    1.5329    0.0000 CA        1 <0>        0.00000
     19 C12         3.0791    0.2782    0.0000 CT        1 <0>        0.00000
     20 C13         3.7935    3.1658    0.0000 CT        1 <0>        0.00000
     21 C14         8.0796   -1.8211    0.0000 CA        1 <0>        0.00000
     22 C15         8.8083   -0.5920    0.0000 CA        1 <0>        0.00000
     23 C16         8.7892   -2.2418    0.0000 CA        1 <0>        0.00000
     24 C17         9.5180   -1.0126    0.0000 CA        1 <0>        0.00000
     25 C18         9.5084   -1.8376    0.0000 CA        1 <0>        0.00000
     26 C19         1.6500    0.2782    0.0000 CT        1 <0>        0.00000
     27 C20         3.0791    4.4033    0.0000 CT        1 <0>        0.00000
     28 C21         8.7797   -3.0668    0.0000 C2        1 <0>        0.00000
     29 C22         8.7701   -3.8918    0.0000 C2        1 <0>        0.00000
     30 H1          7.3795   -0.5754    0.0000 H         1 <0>        0.00000
     31 H2          5.9370    0.2782    0.0000 HA        1 <0>        0.00000
     32 H3          5.9370    1.9282    0.0000 HA        1 <0>        0.00000
     33 H4          3.7935    0.6907    0.0000 H1        1 <0>        0.00000
     34 H5          3.7935    0.6907    0.0000 H1        1 <0>        0.00000
     35 H6          4.5080    2.7533    0.0000 H1        1 <0>        0.00000
     36 H7          4.5080    2.7533    0.0000 H1        1 <0>        0.00000
     37 H8          8.1365    1.5329    0.0000 H5        1 <0>        0.00000
     38 H9          3.0791    0.2782    0.0000 H1        1 <0>        0.00000
     39 H10         3.0791    0.2782    0.0000 H1        1 <0>        0.00000
     40 H11         3.7935    3.1658    0.0000 H1        1 <0>        0.00000
     41 H12         3.7935    3.1658    0.0000 H1        1 <0>        0.00000
     42 H13         8.0796   -1.8211    0.0000 HA        1 <0>        0.00000
     43 H14         8.8083   -0.5920    0.0000 HA        1 <0>        0.00000
     44 H15         9.5180   -1.0126    0.0000 HA        1 <0>        0.00000
     45 H16         9.5084   -1.8376    0.0000 HA        1 <0>        0.00000
     46 H17         1.6500    0.2782    0.0000 H1        1 <0>        0.00000
     47 H18         1.6500    0.2782    0.0000 H1        1 <0>        0.00000
     48 H19         1.6500    0.2782    0.0000 H1        1 <0>        0.00000
     49 H20         3.0791    4.4033    0.0000 H1        1 <0>        0.00000
     50 H21         3.0791    4.4033    0.0000 H1        1 <0>        0.00000
     51 H22         3.0791    4.4033    0.0000 H1        1 <0>        0.00000
     52 H23         8.7701   -3.8918    0.0000 HC        1 <0>        0.00000
@<TRIPOS>BOND
     1    1   10 1
     2    1   15 1
     3    2   11 1
     4    2   17 1
     5    3   19 1
     6    3   26 1
     7    4   20 1
     8    4   27 1
     9    5   13 1
    10    5   16 1
    11    6    9 ar
    12    6   18 ar
    13    7   13 ar
    14    7   18 ar
    15    8    9 ar
    16    8   12 ar
    17    8   13 ar
    18    9   14 ar
    19   10   11 ar
    20   10   12 ar
    21   11   14 ar
    22   15   19 1
    23   16   21 ar
    24   16   22 ar
    25   17   20 1
    26   21   23 ar
    27   22   24 ar
    28   23   25 ar
    29   23   28 1
    30   24   25 ar
    31   28   29 3
    32    5   30 1
    33   12   31 1
    34   14   32 1
    35   15   33 1
    36   15   34 1
    37   17   35 1
    38   17   36 1
    39   18   37 1
    40   19   38 1
    41   19   39 1
    42   20   40 1
    43   20   41 1
    44   21   42 1
    45   22   43 1
    46   24   44 1
    47   25   45 1
    48   26   46 1
    49   26   47 1
    50   26   48 1
    51   27   49 1
    52   27   50 1
    53   27   51 1
    54   29   52 1
@<TRIPOS>SUBSTRUCTURE
     1 <0>         1 GROUP 0 A     ****
@<TRIPOS>MOLECULE
GWB
   37    39     1     0     0
SMALL
NO_CHARGES

@<TRIPOS>ATOM
      1 C1          0.2765    1.0395    0.0000 C2        1 <0>        0.00000
      2 C2         -0.4380    1.4520    0.0000 C2        1 <0>        0.00000
      3 C3         -1.1524    1.8645    0.0000 CJ        1 <0>        0.00000
      4 C4         -1.9774    1.8645    0.0000 CJ        1 <0>        0.00000
      5 C5         -1.5649    2.5790    0.0000 CJ        1 <0>        0.00000
      6 N1          0.9910   -1.8480    0.0000 N         1 <0>        0.00000
      7 C6          0.2765   -1.4355    0.0000 C         1 <0>        0.00000
      8 O1         -0.4380   -1.8480    0.0000 O         1 <0>        0.00000
      9 C7          0.2765   -0.6105    0.0000 CA        1 <0>        0.00000
     10 C8          0.9910   -0.1980    0.0000 CA        1 <0>        0.00000
     11 O2          0.9910    0.6270    0.0000 OS        1 <0>        0.00000
     12 C9          1.7054   -1.4355    0.0000 CB        1 <0>        0.00000
     13 C10         1.7054   -0.6105    0.0000 CB        1 <0>        0.00000
     14 C11         2.4199   -0.1980    0.0000 CA        1 <0>        0.00000
     15 C12         3.1344   -0.6105    0.0000 CA        1 <0>        0.00000
     16 C13         3.1344   -1.4355    0.0000 CA        1 <0>        0.00000
     17 C14         2.4199   -1.8480    0.0000 CA        1 <0>        0.00000
     18 F1          3.8489   -0.1980    0.0000 F         1 <0>        0.00000
     19 C15        -0.4380   -0.1980    0.0000 CT        1 <0>        0.00000
     20 C16        -0.4380    0.6270    0.0000 CT        1 <0>        0.00000
     21 C17        -1.1524   -0.6105    0.0000 CT        1 <0>        0.00000
     22 H1         -1.1524    1.8645    0.0000 HC        1 <0>        0.00000
     23 H2         -1.9774    1.8645    0.0000 HC        1 <0>        0.00000
     24 H3         -1.9774    1.8645    0.0000 HC        1 <0>        0.00000
     25 H4         -1.5649    2.5790    0.0000 HC        1 <0>        0.00000
     26 H5         -1.5649    2.5790    0.0000 HC        1 <0>        0.00000
     27 H6          0.9910   -1.8480    0.0000 H         1 <0>        0.00000
     28 H7          2.4199   -0.1980    0.0000 HA        1 <0>        0.00000
     29 H8          3.1344   -1.4355    0.0000 HA        1 <0>        0.00000
     30 H9          2.4199   -1.8480    0.0000 HA        1 <0>        0.00000
     31 H10        -0.4380   -0.1980    0.0000 HC        1 <0>        0.00000
     32 H11        -0.4380    0.6270    0.0000 HC        1 <0>        0.00000
     33 H12        -0.4380    0.6270    0.0000 HC        1 <0>        0.00000
     34 H13        -0.4380    0.6270    0.0000 HC        1 <0>        0.00000
     35 H14        -1.1524   -0.6105    0.0000 HC        1 <0>        0.00000
     36 H15        -1.1524   -0.6105    0.0000 HC        1 <0>        0.00000
     37 H16        -1.1524   -0.6105    0.0000 HC        1 <0>        0.00000
@<TRIPOS>BOND
     1    1    2 3
     2    1   11 1
     3    2    3 1
     4    3    4 1
     5    3    5 1
     6    4    5 1
     7    6    7 am
     8    6   12 1
     9    7    8 2
    10    7    9 1
    11    9   10 2
    12    9   19 1
    13   10   11 1
    14   10   13 1
    15   12   13 ar
    16   12   17 ar
    17   13   14 ar
    18   14   15 ar
    19   15   16 ar
    20   15   18 1
    21   16   17 ar
    22   19   20 1
    23   19   21 1
    24    3   22 1
    25    4   23 1
    26    4   24 1
    27    5   25 1
    28    5   26 1
    29    6   27 1
    30   14   28 1
    31   16   29 1
    32   17   30 1
    33   19   31 1
    34   20   32 1
    35   20   33 1
    36   20   34 1
    37   21   35 1
    38   21   36 1
    39   21   37 1
@<TRIPOS>SUBSTRUCTURE
     1 <0>         1 GROUP 0 A     ****
@<TRIPOS>MOLECULE
MiniDrugBank_203
   40    41     1     0     0
SMALL
NO_CHARGES

@<TRIPOS>ATOM
      1 N1         -2.8961   -2.2230    0.0000 N         1 <0>        0.00000
      2 C1         -2.3441   -2.8361    0.0000 C         1 <0>        0.00000
      3 O1         -2.5990   -3.6207    0.0000 O         1 <0>        0.00000
      4 C2         -1.5371   -2.6646    0.0000 CM        1 <0>        0.00000
      5 C3         -0.9851   -3.2777    0.0000 CM        1 <0>        0.00000
      6 C4         -0.1781   -3.1062    0.0000 CM        1 <0>        0.00000
      7 C5          0.3739   -3.7192    0.0000 CT        1 <0>        0.00000
      8 S1          1.1809   -3.5477    0.0000 SO        1 <0>        0.00000
      9 O2          1.4358   -2.7631    0.0000 O2        1 <0>        0.00000
     10 O3          1.7329   -4.1608    0.0000 O2        1 <0>        0.00000
     11 C6          0.0768   -2.3215    0.0000 CM        1 <0>        0.00000
     12 N2          0.8838   -2.1500    0.0000 N2        1 <0>        0.00000
     13 C7          1.1387   -1.3654    0.0000 CW        1 <0>        0.00000
     14 C8          0.6538   -0.6979    0.0000 CC        1 <0>        0.00000
     15 C9         -0.1712   -0.6979    0.0000 C         1 <0>        0.00000
     16 O4         -0.5837    0.0165    0.0000 O         1 <0>        0.00000
     17 C10         1.1387   -0.0305    0.0000 CC        1 <0>        0.00000
     18 C11         1.9233   -0.2854    0.0000 CW        1 <0>        0.00000
     19 C12         2.6378    0.1271    0.0000 CA        1 <0>        0.00000
     20 C13         3.3523   -0.2854    0.0000 CA        1 <0>        0.00000
     21 C14         3.3523   -1.1104    0.0000 CA        1 <0>        0.00000
     22 C15         2.6378   -1.5229    0.0000 CA        1 <0>        0.00000
     23 N3          1.9233   -1.1104    0.0000 N*        1 <0>        0.00000
     24 C16        -0.4752   -1.7084    0.0000 C         1 <0>        0.00000
     25 O5         -0.4752   -0.8834    0.0000 OH        1 <0>        0.00000
     26 O6         -1.2822   -1.8800    0.0000 O         1 <0>        0.00000
     27 H1         -2.8961   -2.2230    0.0000 H         1 <0>        0.00000
     28 H2         -2.8961   -2.2230    0.0000 H         1 <0>        0.00000
     29 H3         -1.5371   -2.6646    0.0000 HA        1 <0>        0.00000
     30 H4         -0.9851   -3.2777    0.0000 HA        1 <0>        0.00000
     31 H5          0.3739   -3.7192    0.0000 H1        1 <0>        0.00000
     32 H6          0.3739   -3.7192    0.0000 H1        1 <0>        0.00000
     33 H7          0.8838   -2.1500    0.0000 H         1 <0>        0.00000
     34 H8         -0.1712   -0.6979    0.0000 H4        1 <0>        0.00000
     35 H9          1.1387   -0.0305    0.0000 HA        1 <0>        0.00000
     36 H10         2.6378    0.1271    0.0000 HA        1 <0>        0.00000
     37 H11         3.3523   -0.2854    0.0000 HA        1 <0>        0.00000
     38 H12         3.3523   -1.1104    0.0000 HA        1 <0>        0.00000
     39 H13         2.6378   -1.5229    0.0000 H4        1 <0>        0.00000
     40 H14        -0.4752   -0.8834    0.0000 HO        1 <0>        0.00000
@<TRIPOS>BOND
     1    1    2 am
     2    2    3 2
     3    2    4 1
     4    4    5 2
     5    5    6 1
     6    6    7 1
     7    7    8 1
     8    8    9 2
     9    8   10 2
    10    6   11 2
    11   11   12 1
    12   12   13 1
    13   13   14 2
    14   14   15 1
    15   15   16 2
    16   14   17 1
    17   17   18 2
    18   18   19 1
    19   19   20 2
    20   20   21 1
    21   21   22 2
    22   22   23 1
    23   13   23 1
    24   18   23 1
    25   11   24 1
    26   24   25 1
    27   24   26 2
    28    1   27 1
    29    1   28 1
    30    4   29 1
    31    5   30 1
    32    7   31 1
    33    7   32 1
    34   12   33 1
    35   15   34 1
    36   17   35 1
    37   19   36 1
    38   20   37 1
    39   21   38 1
    40   22   39 1
    41   25   40 1
@<TRIPOS>SUBSTRUCTURE
     1 <0>         1 GROUP 0 A     ****
@<TRIPOS>MOLECULE
MiniDrugBank_204
   11    10     1     0     0
SMALL
NO_CHARGES

@<TRIPOS>ATOM
      1 C1          2.0625   -0.7145    0.0000 CT        1 <0>        0.00000
      2 C2          1.2375   -0.7145    0.0000 CT        1 <0>        0.00000
      3 Cl1         0.8250   -1.4289    0.0000 CL        1 <0>        0.00000
      4 C3          0.8250    0.0000    0.0000 CT        1 <0>        0.00000
      5 Cl2         0.0000    0.0000    0.0000 CL        1 <0>        0.00000
      6 H1          2.0625   -0.7145    0.0000 HC        1 <0>        0.00000
      7 H2          2.0625   -0.7145    0.0000 HC        1 <0>        0.00000
      8 H3          2.0625   -0.7145    0.0000 HC        1 <0>        0.00000
      9 H4          1.2375   -0.7145    0.0000 H1        1 <0>        0.00000
     10 H5          0.8250    0.0000    0.0000 H1        1 <0>        0.00000
     11 H6          0.8250    0.0000    0.0000 H1        1 <0>        0.00000
@<TRIPOS>BOND
     1    1    2 1
     2    2    3 1
     3    2    4 1
     4    4    5 1
     5    1    6 1
     6    1    7 1
     7    1    8 1
     8    2    9 1
     9    4   10 1
    10    4   11 1
@<TRIPOS>SUBSTRUCTURE
     1 <0>         1 GROUP 0 A     ****
@<TRIPOS>MOLECULE
MiniDrugBank_205
   72    74     1     0     0
SMALL
NO_CHARGES

@<TRIPOS>ATOM
      1 N1          4.4449    5.8498    0.0000 NB        1 <0>        0.00000
      2 C1          5.2699    5.8498    0.0000 C         1 <0>        0.00000
      3 N2          5.6824    6.5643    0.0000 N         1 <0>        0.00000
      4 C2          5.6824    5.1354    0.0000 CA        1 <0>        0.00000
      5 C3          6.5074    5.1354    0.0000 CA        1 <0>        0.00000
      6 C4          6.9199    4.4209    0.0000 CA        1 <0>        0.00000
      7 C5          6.5074    3.7064    0.0000 CA        1 <0>        0.00000
      8 C6          6.9199    2.9920    0.0000 CT        1 <0>        0.00000
      9 N3          6.5074    2.2775    0.0000 N         1 <0>        0.00000
     10 C7          6.9199    1.5630    0.0000 C         1 <0>        0.00000
     11 O1          7.7449    1.5630    0.0000 O         1 <0>        0.00000
     12 C8          6.5074    0.8485    0.0000 CT        1 <0>        0.00000
     13 C9          5.6824    0.8485    0.0000 CT        1 <0>        0.00000
     14 C10         5.2699    0.1341    0.0000 CT        1 <0>        0.00000
     15 C11         4.4449    0.1341    0.0000 C         1 <0>        0.00000
     16 N4          4.0324   -0.5804    0.0000 N         1 <0>        0.00000
     17 O2          4.0324    0.8485    0.0000 O         1 <0>        0.00000
     18 N5          6.9199    0.1341    0.0000 N         1 <0>        0.00000
     19 C12         6.5074   -0.5804    0.0000 C         1 <0>        0.00000
     20 O3          5.6824   -0.5804    0.0000 O         1 <0>        0.00000
     21 C13         6.9199   -1.2949    0.0000 CT        1 <0>        0.00000
     22 C14         6.5074   -2.0093    0.0000 CT        1 <0>        0.00000
     23 C15         6.9199   -2.7238    0.0000 CC        1 <0>        0.00000
     24 C16         7.7404   -2.8100    0.0000 CW        1 <0>        0.00000
     25 N6          7.9119   -3.6170    0.0000 NA        1 <0>        0.00000
     26 C17         7.1975   -4.0295    0.0000 CB        1 <0>        0.00000
     27 C18         7.0259   -4.8365    0.0000 CA        1 <0>        0.00000
     28 C19         6.2413   -5.0914    0.0000 CA        1 <0>        0.00000
     29 C20         5.6282   -4.5394    0.0000 CA        1 <0>        0.00000
     30 C21         5.7997   -3.7324    0.0000 CA        1 <0>        0.00000
     31 C22         6.5844   -3.4775    0.0000 CB        1 <0>        0.00000
     32 N7          7.7449   -1.2949    0.0000 N3        1 <0>        0.00000
     33 S1          8.1574   -0.5804    0.0000 SO        1 <0>        0.00000
     34 O4          7.4430   -0.1679    0.0000 O2        1 <0>        0.00000
     35 O5          8.8719   -0.9929    0.0000 O2        1 <0>        0.00000
     36 C23         8.5699    0.1341    0.0000 CT        1 <0>        0.00000
     37 C24         9.3949    0.1341    0.0000 CT        1 <0>        0.00000
     38 C25         5.6824    3.7064    0.0000 CA        1 <0>        0.00000
     39 C26         5.2699    4.4209    0.0000 CA        1 <0>        0.00000
     40 H1          4.4449    5.8498    0.0000 H         1 <0>        0.00000
     41 H2          5.6824    6.5643    0.0000 H         1 <0>        0.00000
     42 H3          5.6824    6.5643    0.0000 H         1 <0>        0.00000
     43 H4          6.5074    5.1354    0.0000 HA        1 <0>        0.00000
     44 H5          6.9199    4.4209    0.0000 HA        1 <0>        0.00000
     45 H6          6.9199    2.9920    0.0000 H1        1 <0>        0.00000
     46 H7          6.9199    2.9920    0.0000 H1        1 <0>        0.00000
     47 H8          6.5074    2.2775    0.0000 H         1 <0>        0.00000
     48 H9          6.5074    0.8485    0.0000 H1        1 <0>        0.00000
     49 H10         5.6824    0.8485    0.0000 HC        1 <0>        0.00000
     50 H11         5.6824    0.8485    0.0000 HC        1 <0>        0.00000
     51 H12         5.2699    0.1341    0.0000 HC        1 <0>        0.00000
     52 H13         5.2699    0.1341    0.0000 HC        1 <0>        0.00000
     53 H14         4.0324   -0.5804    0.0000 H         1 <0>        0.00000
     54 H15         4.0324   -0.5804    0.0000 H         1 <0>        0.00000
     55 H16         6.9199    0.1341    0.0000 H         1 <0>        0.00000
     56 H17         6.9199   -1.2949    0.0000 H1        1 <0>        0.00000
     57 H18         6.5074   -2.0093    0.0000 HC        1 <0>        0.00000
     58 H19         6.5074   -2.0093    0.0000 HC        1 <0>        0.00000
     59 H20         7.7404   -2.8100    0.0000 H4        1 <0>        0.00000
     60 H21         7.9119   -3.6170    0.0000 H         1 <0>        0.00000
     61 H22         7.0259   -4.8365    0.0000 HA        1 <0>        0.00000
     62 H23         6.2413   -5.0914    0.0000 HA        1 <0>        0.00000
     63 H24         5.6282   -4.5394    0.0000 HA        1 <0>        0.00000
     64 H25         5.7997   -3.7324    0.0000 HA        1 <0>        0.00000
     65 H26         7.7449   -1.2949    0.0000 H         1 <0>        0.00000
     66 H27         8.5699    0.1341    0.0000 H1        1 <0>        0.00000
     67 H28         8.5699    0.1341    0.0000 H1        1 <0>        0.00000
     68 H29         9.3949    0.1341    0.0000 HC        1 <0>        0.00000
     69 H30         9.3949    0.1341    0.0000 HC        1 <0>        0.00000
     70 H31         9.3949    0.1341    0.0000 HC        1 <0>        0.00000
     71 H32         5.6824    3.7064    0.0000 HA        1 <0>        0.00000
     72 H33         5.2699    4.4209    0.0000 HA        1 <0>        0.00000
@<TRIPOS>BOND
     1    1    2 2
     2    2    3 1
     3    2    4 1
     4    4    5 ar
     5    5    6 ar
     6    6    7 ar
     7    7    8 1
     8    8    9 1
     9    9   10 am
    10   10   11 2
    11   10   12 1
    12   12   13 1
    13   13   14 1
    14   14   15 1
    15   15   16 am
    16   15   17 2
    17   12   18 1
    18   18   19 am
    19   19   20 2
    20   19   21 1
    21   21   22 1
    22   22   23 1
    23   23   24 2
    24   24   25 1
    25   25   26 1
    26   26   27 ar
    27   27   28 ar
    28   28   29 ar
    29   29   30 ar
    30   30   31 ar
    31   23   31 1
    32   26   31 ar
    33   21   32 1
    34   32   33 1
    35   33   34 2
    36   33   35 2
    37   33   36 1
    38   36   37 1
    39    7   38 ar
    40   38   39 ar
    41    4   39 ar
    42    1   40 1
    43    3   41 1
    44    3   42 1
    45    5   43 1
    46    6   44 1
    47    8   45 1
    48    8   46 1
    49    9   47 1
    50   12   48 1
    51   13   49 1
    52   13   50 1
    53   14   51 1
    54   14   52 1
    55   16   53 1
    56   16   54 1
    57   18   55 1
    58   21   56 1
    59   22   57 1
    60   22   58 1
    61   24   59 1
    62   25   60 1
    63   27   61 1
    64   28   62 1
    65   29   63 1
    66   30   64 1
    67   32   65 1
    68   36   66 1
    69   36   67 1
    70   37   68 1
    71   37   69 1
    72   37   70 1
    73   38   71 1
    74   39   72 1
@<TRIPOS>SUBSTRUCTURE
     1 <0>         1 GROUP 0 A     ****
@<TRIPOS>MOLECULE
MiniDrugBank_206
   14    14     1     0     0
SMALL
NO_CHARGES

@<TRIPOS>ATOM
      1 I1          2.1434    1.2375    0.0000 I         1 <0>        0.00000
      2 C1          1.4289    0.8250    0.0000 CT        1 <0>        0.00000
      3 C2          1.4289    0.0000    0.0000 CT        1 <0>        0.00000
      4 N1          0.7145   -0.4125    0.0000 N         1 <0>        0.00000
      5 C3          0.0000    0.0000    0.0000 C         1 <0>        0.00000
      6 O1         -0.7145   -0.4125    0.0000 O         1 <0>        0.00000
      7 N2          0.0000    0.8250    0.0000 N         1 <0>        0.00000
      8 C4          0.7145    1.2375    0.0000 C         1 <0>        0.00000
      9 O2          0.7145    2.0625    0.0000 O         1 <0>        0.00000
     10 H1          1.4289    0.8250    0.0000 HC        1 <0>        0.00000
     11 H2          1.4289    0.0000    0.0000 H1        1 <0>        0.00000
     12 H3          1.4289    0.0000    0.0000 H1        1 <0>        0.00000
     13 H4          0.7145   -0.4125    0.0000 H         1 <0>        0.00000
     14 H5          0.0000    0.8250    0.0000 H         1 <0>        0.00000
@<TRIPOS>BOND
     1    1    2 1
     2    2    3 1
     3    3    4 1
     4    4    5 am
     5    5    6 2
     6    5    7 am
     7    7    8 am
     8    2    8 1
     9    8    9 2
    10    2   10 1
    11    3   11 1
    12    3   12 1
    13    4   13 1
    14    7   14 1
@<TRIPOS>SUBSTRUCTURE
     1 <0>         1 GROUP 0 A     ****
@<TRIPOS>MOLECULE
AT5
   44    44     1     0     0
SMALL
NO_CHARGES

@<TRIPOS>ATOM
      1 O1          0.0373   -1.5539    0.0000 O         1 <0>        0.00000
      2 C1          0.0373   -0.7289    0.0000 C         1 <0>        0.00000
      3 C2          0.7518   -0.3164    0.0000 CT        1 <0>        0.00000
      4 C3          1.4663   -0.7289    0.0000 CT        1 <0>        0.00000
      5 C4          2.1808   -0.3164    0.0000 CT        1 <0>        0.00000
      6 C5          2.1808    0.5086    0.0000 CT        1 <0>        0.00000
      7 C6          2.8952   -0.7289    0.0000 CT        1 <0>        0.00000
      8 Cl1         2.8952   -1.5539    0.0000 CL        1 <0>        0.00000
      9 C7          3.6097   -0.3164    0.0000 CT        1 <0>        0.00000
     10 Cl2         4.3242   -0.7289    0.0000 CL        1 <0>        0.00000
     11 C8          0.7518    0.5086    0.0000 CT        1 <0>        0.00000
     12 C9         -0.6771   -0.3164    0.0000 CA        1 <0>        0.00000
     13 C10        -1.3916   -0.7289    0.0000 C         1 <0>        0.00000
     14 N1         -2.1061   -0.3164    0.0000 N         1 <0>        0.00000
     15 C11        -2.1061    0.5086    0.0000 CA        1 <0>        0.00000
     16 C12        -1.3916    0.9211    0.0000 CA        1 <0>        0.00000
     17 C13        -0.6771    0.5086    0.0000 CA        1 <0>        0.00000
     18 O2          0.0373    0.9211    0.0000 OH        1 <0>        0.00000
     19 O3         -1.3916    1.7461    0.0000 OS        1 <0>        0.00000
     20 C14        -0.6771    2.1586    0.0000 CT        1 <0>        0.00000
     21 O4         -2.8205    0.9211    0.0000 OS        1 <0>        0.00000
     22 C15        -3.5350    0.5086    0.0000 CT        1 <0>        0.00000
     23 O5         -1.3916   -1.5539    0.0000 O         1 <0>        0.00000
     24 H1          0.7518   -0.9003    0.0000 HC        1 <0>        0.00000
     25 H2          1.6751   -0.0244    0.0000 HC        1 <0>        0.00000
     26 H3          2.3895   -1.0208    0.0000 H1        1 <0>        0.00000
     27 H4          1.4663   -0.7289    0.0000 HC        1 <0>        0.00000
     28 H5          1.4663   -0.7289    0.0000 HC        1 <0>        0.00000
     29 H6          2.1808    0.5086    0.0000 HC        1 <0>        0.00000
     30 H7          2.1808    0.5086    0.0000 HC        1 <0>        0.00000
     31 H8          2.1808    0.5086    0.0000 HC        1 <0>        0.00000
     32 H9          3.6097   -0.3164    0.0000 H1        1 <0>        0.00000
     33 H10         3.6097   -0.3164    0.0000 H1        1 <0>        0.00000
     34 H11         0.7518    0.5086    0.0000 HC        1 <0>        0.00000
     35 H12         0.7518    0.5086    0.0000 HC        1 <0>        0.00000
     36 H13         0.7518    0.5086    0.0000 HC        1 <0>        0.00000
     37 H14        -2.1061   -0.3164    0.0000 H         1 <0>        0.00000
     38 H15         0.0373    0.9211    0.0000 HO        1 <0>        0.00000
     39 H16        -0.6771    2.1586    0.0000 H1        1 <0>        0.00000
     40 H17        -0.6771    2.1586    0.0000 H1        1 <0>        0.00000
     41 H18        -0.6771    2.1586    0.0000 H1        1 <0>        0.00000
     42 H19        -3.5350    0.5086    0.0000 H1        1 <0>        0.00000
     43 H20        -3.5350    0.5086    0.0000 H1        1 <0>        0.00000
     44 H21        -3.5350    0.5086    0.0000 H1        1 <0>        0.00000
@<TRIPOS>BOND
     1    1    2 2
     2    2    3 1
     3    2   12 1
     4    3    4 1
     5    3   11 1
     6    3   24 1
     7    4    5 1
     8    5    6 1
     9    5    7 1
    10    5   25 1
    11    7    8 1
    12    7    9 1
    13    7   26 1
    14    9   10 1
    15   12   13 1
    16   12   17 2
    17   13   14 am
    18   13   23 2
    19   14   15 1
    20   15   16 2
    21   15   21 1
    22   16   17 1
    23   16   19 1
    24   17   18 1
    25   19   20 1
    26   21   22 1
    27    4   27 1
    28    4   28 1
    29    6   29 1
    30    6   30 1
    31    6   31 1
    32    9   32 1
    33    9   33 1
    34   11   34 1
    35   11   35 1
    36   11   36 1
    37   14   37 1
    38   18   38 1
    39   20   39 1
    40   20   40 1
    41   20   41 1
    42   22   42 1
    43   22   43 1
    44   22   44 1
@<TRIPOS>SUBSTRUCTURE
     1 <0>         1 GROUP 0 A     ****
@<TRIPOS>MOLECULE
MiniDrugBank_208
   21    20     1     0     0
SMALL
NO_CHARGES

@<TRIPOS>ATOM
      1 O1          1.0461    1.4289    0.0000 OH        1 <0>        0.00000
      2 C1          1.7605    1.8414    0.0000 CT        1 <0>        0.00000
      3 C2          2.4750    1.4289    0.0000 CT        1 <0>        0.00000
      4 C3          3.1895    1.8414    0.0000 CT        1 <0>        0.00000
      5 C4          3.9039    1.4289    0.0000 CT        1 <0>        0.00000
      6 C5          4.6184    1.8414    0.0000 CT        1 <0>        0.00000
      7 C6          5.3329    1.4289    0.0000 CT        1 <0>        0.00000
      8 Br1         6.0474    1.8414    0.0000 BR        1 <0>        0.00000
      9 H1          1.0461    1.4289    0.0000 HO        1 <0>        0.00000
     10 H2          1.7605    1.8414    0.0000 H1        1 <0>        0.00000
     11 H3          1.7605    1.8414    0.0000 H1        1 <0>        0.00000
     12 H4          2.4750    1.4289    0.0000 HC        1 <0>        0.00000
     13 H5          2.4750    1.4289    0.0000 HC        1 <0>        0.00000
     14 H6          3.1895    1.8414    0.0000 HC        1 <0>        0.00000
     15 H7          3.1895    1.8414    0.0000 HC        1 <0>        0.00000
     16 H8          3.9039    1.4289    0.0000 HC        1 <0>        0.00000
     17 H9          3.9039    1.4289    0.0000 HC        1 <0>        0.00000
     18 H10         4.6184    1.8414    0.0000 HC        1 <0>        0.00000
     19 H11         4.6184    1.8414    0.0000 HC        1 <0>        0.00000
     20 H12         5.3329    1.4289    0.0000 H1        1 <0>        0.00000
     21 H13         5.3329    1.4289    0.0000 H1        1 <0>        0.00000
@<TRIPOS>BOND
     1    1    2 1
     2    2    3 1
     3    3    4 1
     4    4    5 1
     5    5    6 1
     6    6    7 1
     7    7    8 1
     8    1    9 1
     9    2   10 1
    10    2   11 1
    11    3   12 1
    12    3   13 1
    13    4   14 1
    14    4   15 1
    15    5   16 1
    16    5   17 1
    17    6   18 1
    18    6   19 1
    19    7   20 1
    20    7   21 1
@<TRIPOS>SUBSTRUCTURE
     1 <0>         1 GROUP 0 A     ****
@<TRIPOS>MOLECULE
MiniDrugBank_209
   19    18     1     0     0
SMALL
NO_CHARGES

@<TRIPOS>ATOM
      1 S1          3.5096    2.2562    2.8011 SH        1 <0>        0.00000
      2 C1          2.5911    1.4369    1.5890 CM        1 <0>        0.00000
      3 C2          1.5511    0.6485    1.8925 CM        1 <0>        0.00000
      4 C3          0.7328   -0.0622    0.8629 CT        1 <0>        0.00000
      5 S2          0.8086   -1.8593    1.1281 SO        1 <0>        0.00000
      6 O1          2.1210   -2.3456    0.5377 O         1 <0>        0.00000
      7 C4         -0.5088   -2.3215   -0.0337 CT        1 <0>        0.00000
      8 C5         -0.6969   -3.8033   -0.0456 CM        1 <0>        0.00000
      9 C6         -1.8437   -4.4121    0.2767 CM        1 <0>        0.00000
     10 H1          4.3827    2.8719    1.9905 HS        1 <0>        0.00000
     11 H2          2.8881    1.5822    0.5559 H4        1 <0>        0.00000
     12 H3          1.2525    0.5140    2.9304 HA        1 <0>        0.00000
     13 H4         -0.3147    0.2435    0.9414 H1        1 <0>        0.00000
     14 H5          1.0755    0.1395   -0.1567 H1        1 <0>        0.00000
     15 H6         -0.2242   -1.9690   -1.0301 H1        1 <0>        0.00000
     16 H7         -1.4175   -1.7927    0.2719 H1        1 <0>        0.00000
     17 H8          0.1468   -4.4168   -0.3521 HA        1 <0>        0.00000
     18 H9         -1.9207   -5.4933    0.2410 HA        1 <0>        0.00000
     19 H10        -2.7191   -3.8490    0.5805 HA        1 <0>        0.00000
@<TRIPOS>BOND
     1    1    2 1
     2    2    3 2
     3    3    4 1
     4    4    5 1
     5    5    6 2
     6    5    7 1
     7    7    8 1
     8    8    9 2
     9    1   10 1
    10    2   11 1
    11    3   12 1
    12    4   13 1
    13    4   14 1
    14    7   15 1
    15    7   16 1
    16    8   17 1
    17    9   18 1
    18    9   19 1
@<TRIPOS>SUBSTRUCTURE
     1 <0>         1 GROUP 0 A     ****
@<TRIPOS>MOLECULE
MiniDrugBank_210
   31    32     1     0     0
SMALL
NO_CHARGES

@<TRIPOS>ATOM
      1 N1          2.9418    1.8514    3.2065 N3        1 <0>        0.00000
      2 C1          2.2669    0.6737    2.6634 CT        1 <0>        0.00000
      3 C2          2.3774    0.6560    1.1336 CT        1 <0>        0.00000
      4 C3          1.3294   -0.2253    0.4937 CM        1 <0>        0.00000
      5 C4          1.6423   -1.5212    0.2946 CM        1 <0>        0.00000
      6 C5          0.8561   -2.6536   -0.2955 CT        1 <0>        0.00000
      7 C6         -0.6609   -2.5269   -0.3387 CT        1 <0>        0.00000
      8 C7         -1.1495   -1.3896   -1.2250 CT        1 <0>        0.00000
      9 C8         -0.9371   -0.0359   -0.6346 CW        1 <0>        0.00000
     10 C9          0.0855    0.4105    0.1051 CC        1 <0>        0.00000
     11 C10        -0.3258    1.8018    0.4179 C         1 <0>        0.00000
     12 O1          0.2972    2.6086    1.0880 O         1 <0>        0.00000
     13 N2         -1.5428    2.0132   -0.1794 N         1 <0>        0.00000
     14 O2         -1.9717    0.8625   -0.8598 OS        1 <0>        0.00000
     15 C11         2.9229   -0.5319    3.3161 C         1 <0>        0.00000
     16 O3          2.0599   -1.5751    3.4447 OH        1 <0>        0.00000
     17 O4          4.0858   -0.5845    3.6944 O         1 <0>        0.00000
     18 H1          2.4502    2.7310    3.2351 H         1 <0>        0.00000
     19 H2          3.9388    1.8233    3.3532 H         1 <0>        0.00000
     20 H3          1.2088    0.6890    2.9523 H1        1 <0>        0.00000
     21 H4          3.3699    0.3129    0.8161 HC        1 <0>        0.00000
     22 H5          2.2497    1.6697    0.7344 HC        1 <0>        0.00000
     23 H6          2.6381   -1.8431    0.6038 HA        1 <0>        0.00000
     24 H7          1.2401   -2.8491   -1.3044 HC        1 <0>        0.00000
     25 H8          1.0876   -3.5498    0.2952 HC        1 <0>        0.00000
     26 H9         -1.0677   -3.4677   -0.7310 HC        1 <0>        0.00000
     27 H10        -1.0602   -2.4195    0.6783 HC        1 <0>        0.00000
     28 H11        -0.6837   -1.4371   -2.2163 HC        1 <0>        0.00000
     29 H12        -2.2262   -1.5364   -1.3817 HC        1 <0>        0.00000
     30 H13        -2.1261    2.8400   -0.1776 H         1 <0>        0.00000
     31 H14         1.1562   -1.4059    3.1021 HO        1 <0>        0.00000
@<TRIPOS>BOND
     1    1    2 1
     2    2    3 1
     3    3    4 1
     4    4    5 2
     5    5    6 1
     6    6    7 1
     7    7    8 1
     8    8    9 1
     9    9   10 2
    10    4   10 1
    11   10   11 1
    12   11   12 2
    13   11   13 am
    14   13   14 1
    15    9   14 1
    16    2   15 1
    17   15   16 1
    18   15   17 2
    19    1   18 1
    20    1   19 1
    21    2   20 1
    22    3   21 1
    23    3   22 1
    24    5   23 1
    25    6   24 1
    26    6   25 1
    27    7   26 1
    28    7   27 1
    29    8   28 1
    30    8   29 1
    31   13   30 1
    32   16   31 1
@<TRIPOS>SUBSTRUCTURE
     1 <0>         1 GROUP 0 A     ****
@<TRIPOS>MOLECULE
MiniDrugBank_211
   22    22     1     0     0
SMALL
NO_CHARGES

@<TRIPOS>ATOM
      1 O1         -3.4794   -1.3263    1.0803 OH        1 <0>        0.00000
      2 C1         -2.9847   -0.2469    0.3021 CT        1 <0>        0.00000
      3 C2         -1.5050   -0.0507    0.6093 CT        1 <0>        0.00000
      4 O2         -0.8325   -1.2717    0.2702 OS        1 <0>        0.00000
      5 C3          0.5492   -1.2489    0.6082 CT        1 <0>        0.00000
      6 F1          1.0755   -2.4386    0.2074 F         1 <0>        0.00000
      7 C4          1.2899   -0.1332   -0.1072 CT        1 <0>        0.00000
      8 F2          1.2633   -0.3917   -1.4448 F         1 <0>        0.00000
      9 C5          0.6130    1.2085    0.1395 CT        1 <0>        0.00000
     10 O3          1.2270    2.1963   -0.6815 OH        1 <0>        0.00000
     11 C6         -0.8846    1.1237   -0.1595 CT        1 <0>        0.00000
     12 O4         -1.4984    2.3503    0.2425 OH        1 <0>        0.00000
     13 H1         -4.4220   -1.4265    0.8631 HO        1 <0>        0.00000
     14 H2         -3.1290   -0.4806   -0.7569 H1        1 <0>        0.00000
     15 H3         -3.5513    0.6555    0.5504 H1        1 <0>        0.00000
     16 H4         -1.3976    0.1167    1.6890 H1        1 <0>        0.00000
     17 H5          0.6729   -1.1901    1.6950 H2        1 <0>        0.00000
     18 H6          2.3437   -0.1066    0.1908 H1        1 <0>        0.00000
     19 H7          0.7744    1.5068    1.1824 H1        1 <0>        0.00000
     20 H8          2.1629    2.2259   -0.4276 HO        1 <0>        0.00000
     21 H9         -1.0433    1.0214   -1.2392 H1        1 <0>        0.00000
     22 H10        -1.0729    3.0499   -0.2750 HO        1 <0>        0.00000
@<TRIPOS>BOND
     1    1    2 1
     2    2    3 1
     3    3    4 1
     4    4    5 1
     5    5    6 1
     6    5    7 1
     7    7    8 1
     8    7    9 1
     9    9   10 1
    10    9   11 1
    11    3   11 1
    12   11   12 1
    13    1   13 1
    14    2   14 1
    15    2   15 1
    16    3   16 1
    17    5   17 1
    18    7   18 1
    19    9   19 1
    20   10   20 1
    21   11   21 1
    22   12   22 1
@<TRIPOS>SUBSTRUCTURE
     1 <0>         1 GROUP 0 A     ****
@<TRIPOS>MOLECULE
MiniDrugBank_212
   11    10     1     0     0
SMALL
NO_CHARGES

@<TRIPOS>ATOM
      1 F1         -1.6077   -1.8080   -0.0624 F         1 <0>        0.00000
      2 C1         -0.3915   -1.2231   -0.0067 CT        1 <0>        0.00000
      3 C2         -0.5227    0.2780   -0.0043 CT        1 <0>        0.00000
      4 C3          0.7954    1.0083    0.0099 CT        1 <0>        0.00000
      5 F2          1.4900    0.7168    1.1311 F         1 <0>        0.00000
      6 F3          1.5595    0.6639   -1.0482 F         1 <0>        0.00000
      7 F4         -1.2479    0.6557    1.0791 F         1 <0>        0.00000
      8 F5          0.3204   -1.6526   -1.0702 F         1 <0>        0.00000
      9 F6          0.2257   -1.6642    1.1100 F         1 <0>        0.00000
     10 F7         -1.2275    0.6611   -1.0991 F         1 <0>        0.00000
     11 F8          0.6165    2.3457   -0.0266 F         1 <0>        0.00000
@<TRIPOS>BOND
     1    4    6 1
     2    1    2 1
     3    3    7 1
     4    3    4 1
     5    2    8 1
     6    2    9 1
     7    4    5 1
     8    3   10 1
     9    2    3 1
    10    4   11 1
@<TRIPOS>SUBSTRUCTURE
     1 <0>         1 GROUP 0 A     ****
@<TRIPOS>MOLECULE
MiniDrugBank_213
   29    29     1     0     0
SMALL
NO_CHARGES

@<TRIPOS>ATOM
      1 P1         -1.2933    1.9068    1.9235 P         1 <0>        0.00000
      2 O1         -2.2372    0.8279    2.6905 OH        1 <0>        0.00000
      3 O2         -2.3894    3.0403    1.5307 OH        1 <0>        0.00000
      4 O3         -0.2236    2.4510    2.8341 O         1 <0>        0.00000
      5 C1         -0.9005    1.1434    0.4034 CM        1 <0>        0.00000
      6 C2          0.1808    0.3645    0.2619 CM        1 <0>        0.00000
      7 C3          0.6077   -1.8274   -0.8455 CT        1 <0>        0.00000
      8 C4          0.5676   -0.3119   -1.0220 CT        1 <0>        0.00000
      9 S1          1.0759   -2.6407   -2.4007 S         1 <0>        0.00000
     10 O4         -1.2881   -4.5623   -2.4764 OH        1 <0>        0.00000
     11 C5          1.0309   -6.9920   -1.0525 CA        1 <0>        0.00000
     12 C6         -0.1334   -6.4203   -1.5655 CA        1 <0>        0.00000
     13 C7         -0.1320   -5.0886   -1.9806 CA        1 <0>        0.00000
     14 C8          1.0336   -4.3286   -1.8826 CA        1 <0>        0.00000
     15 C9          2.1978   -4.9004   -1.3695 CA        1 <0>        0.00000
     16 C10         2.1965   -6.2321   -0.9545 CA        1 <0>        0.00000
     17 H1         -2.7434    1.1077    3.4831 HO        1 <0>        0.00000
     18 H2         -2.9031    3.4671    2.2491 HO        1 <0>        0.00000
     19 H3         -1.5531    1.3032   -0.4496 HA        1 <0>        0.00000
     20 H4          0.8332    0.2107    1.1177 HA        1 <0>        0.00000
     21 H5         -0.3728   -2.2087   -0.5406 H1        1 <0>        0.00000
     22 H6          1.3334   -2.1126   -0.0762 H1        1 <0>        0.00000
     23 H7         -0.1332   -0.0422   -1.8221 HC        1 <0>        0.00000
     24 H8          1.5547    0.0641   -1.3187 HC        1 <0>        0.00000
     25 H9         -1.1617   -3.6313   -2.7306 HO        1 <0>        0.00000
     26 H10         1.0299   -8.0287   -0.7295 HA        1 <0>        0.00000
     27 H11        -1.0376   -7.0186   -1.6387 HA        1 <0>        0.00000
     28 H12         3.1171   -4.3259   -1.2843 HA        1 <0>        0.00000
     29 H13         3.1028   -6.6776   -0.5548 HA        1 <0>        0.00000
@<TRIPOS>BOND
     1    1    2 1
     2    1    3 1
     3    1    4 2
     4    1    5 1
     5    5    6 2
     6    6    8 1
     7    7    8 1
     8    7    9 1
     9    9   14 1
    10   10   13 1
    11   11   12 ar
    12   11   16 ar
    13   12   13 ar
    14   13   14 ar
    15   14   15 ar
    16   15   16 ar
    17    2   17 1
    18    3   18 1
    19    5   19 1
    20    6   20 1
    21    7   21 1
    22    7   22 1
    23    8   23 1
    24    8   24 1
    25   10   25 1
    26   11   26 1
    27   12   27 1
    28   15   28 1
    29   16   29 1
@<TRIPOS>SUBSTRUCTURE
     1 <0>         1 GROUP 0 A     ****
@<TRIPOS>MOLECULE
MiniDrugBank_214
   29    29     1     0     0
SMALL
NO_CHARGES

@<TRIPOS>ATOM
      1 P1         -1.2933    1.9068    1.9235 P         1 <0>        0.00000
      2 O1         -0.2240    2.3065    2.9066 O         1 <0>        0.00000
      3 O2         -2.3907    0.9195    2.6049 OH        1 <0>        0.00000
      4 O3         -2.2358    3.1638    1.5083 OH        1 <0>        0.00000
      5 C1          0.1808    0.3645    0.2619 CM        1 <0>        0.00000
      6 C2          0.6077   -1.8274   -0.8455 CT        1 <0>        0.00000
      7 C3          2.1971   -4.8996   -1.3670 CA        1 <0>        0.00000
      8 C4          1.0336   -4.3286   -1.8826 CA        1 <0>        0.00000
      9 C5         -0.1321   -5.0885   -1.9802 CA        1 <0>        0.00000
     10 O4         -1.2874   -4.5631   -2.4794 OH        1 <0>        0.00000
     11 C6         -0.1342   -6.4193   -1.5624 CA        1 <0>        0.00000
     12 C7          1.0293   -6.9903   -1.0468 CA        1 <0>        0.00000
     13 C8          2.1950   -6.2304   -0.9491 CA        1 <0>        0.00000
     14 F1          3.3124   -6.7791   -0.4545 F         1 <0>        0.00000
     15 S1          1.0759   -2.6407   -2.4007 S         1 <0>        0.00000
     16 C9          0.5676   -0.3119   -1.0220 CT        1 <0>        0.00000
     17 C10        -0.9005    1.1434    0.4034 CM        1 <0>        0.00000
     18 H1         -2.9074    1.2333    3.3776 HO        1 <0>        0.00000
     19 H2         -2.7398    3.6264    2.2113 HO        1 <0>        0.00000
     20 H3          0.8332    0.2107    1.1177 HA        1 <0>        0.00000
     21 H4         -0.3728   -2.2087   -0.5406 H1        1 <0>        0.00000
     22 H5          1.3334   -2.1126   -0.0762 H1        1 <0>        0.00000
     23 H6          3.1165   -4.3255   -1.2824 HA        1 <0>        0.00000
     24 H7         -1.1511   -3.6369   -2.7316 HO        1 <0>        0.00000
     25 H8         -1.0385   -7.0175   -1.6351 HA        1 <0>        0.00000
     26 H9          1.0283   -8.0265   -0.7218 HA        1 <0>        0.00000
     27 H10        -0.1332   -0.0422   -1.8221 HC        1 <0>        0.00000
     28 H11         1.5547    0.0641   -1.3187 HC        1 <0>        0.00000
     29 H12        -1.5531    1.3032   -0.4496 HA        1 <0>        0.00000
@<TRIPOS>BOND
     1    1    2 2
     2    1    3 1
     3    1    4 1
     4    1   17 1
     5    5   16 1
     6    5   17 2
     7    6   15 1
     8    6   16 1
     9    7    8 ar
    10    7   13 ar
    11    8    9 ar
    12    8   15 1
    13    9   10 1
    14    9   11 ar
    15   11   12 ar
    16   12   13 ar
    17   13   14 1
    18    3   18 1
    19    4   19 1
    20    5   20 1
    21    6   21 1
    22    6   22 1
    23    7   23 1
    24   10   24 1
    25   11   25 1
    26   12   26 1
    27   16   27 1
    28   16   28 1
    29   17   29 1
@<TRIPOS>SUBSTRUCTURE
     1 <0>         1 GROUP 0 A     ****
@<TRIPOS>MOLECULE
MiniDrugBank_215
   40    42     1     0     0
SMALL
NO_CHARGES

@<TRIPOS>ATOM
      1 Cl1        -1.4118    2.4945    0.4032 CL        1 <0>        0.00000
      2 S1         -3.4637   -3.4160    0.2963 SO        1 <0>        0.00000
      3 S2          0.6576    0.0628   -0.1004 SO        1 <0>        0.00000
      4 S3         -7.5026   -2.4684    2.7313 S         1 <0>        0.00000
      5 O1         -2.8247   -4.0698    1.4240 O2        1 <0>        0.00000
      6 O2         -3.2223   -3.8867   -1.0556 O2        1 <0>        0.00000
      7 O3          1.1728   -1.0719   -0.8414 O2        1 <0>        0.00000
      8 O4          0.8268    1.4122   -0.6027 O2        1 <0>        0.00000
      9 N1         -5.1554   -0.9688    0.7419 NA        1 <0>        0.00000
     10 N2         -5.0703   -3.3636    0.5576 NC        1 <0>        0.00000
     11 N3          1.2173   -0.0121    1.5082 N3        1 <0>        0.00000
     12 C1         -2.8860   -1.7492    0.3268 CB        1 <0>        0.00000
     13 C2         -3.7951   -0.7151    0.5455 CB        1 <0>        0.00000
     14 C3         -1.5251   -1.5128    0.1298 CA        1 <0>        0.00000
     15 C4         -1.0561   -0.2023    0.1514 CA        1 <0>        0.00000
     16 C5         -5.6891   -2.2376    0.7363 CA        1 <0>        0.00000
     17 C6         -3.3043    0.5959    0.5635 CA        1 <0>        0.00000
     18 C7         -1.9439    0.8512    0.3679 CA        1 <0>        0.00000
     19 C8         -7.1816   -2.3179    0.9671 CT        1 <0>        0.00000
     20 C9         -9.3087   -2.5393    2.6717 CT        1 <0>        0.00000
     21 C10        -9.9225   -2.6714    4.0406 CA        1 <0>        0.00000
     22 C11       -10.2572   -1.5293    4.7681 CA        1 <0>        0.00000
     23 C12       -10.1567   -3.9360    4.5807 CA        1 <0>        0.00000
     24 C13       -10.8259   -1.6518    6.0359 CA        1 <0>        0.00000
     25 C14       -10.7254   -4.0584    5.8485 CA        1 <0>        0.00000
     26 C15       -11.0600   -2.9164    6.5761 CA        1 <0>        0.00000
     27 H1         -5.7538   -0.1636    0.8927 H         1 <0>        0.00000
     28 H2          1.7668   -0.8345    1.7858 H         1 <0>        0.00000
     29 H3          1.5282    0.8627    1.9479 H         1 <0>        0.00000
     30 H4         -0.8403   -2.3396   -0.0387 HA        1 <0>        0.00000
     31 H5         -3.9938    1.4214    0.7320 HA        1 <0>        0.00000
     32 H6         -7.5680   -3.1836    0.4396 H1        1 <0>        0.00000
     33 H7         -7.6451   -1.4198    0.5731 H1        1 <0>        0.00000
     34 H8         -9.6147   -3.3831    2.0401 H1        1 <0>        0.00000
     35 H9         -9.6861   -1.6337    2.1799 H1        1 <0>        0.00000
     36 H10       -10.0782   -0.5398    4.3558 HA        1 <0>        0.00000
     37 H11        -9.8994   -4.8310    4.0206 HA        1 <0>        0.00000
     38 H12       -11.0869   -0.7627    6.6021 HA        1 <0>        0.00000
     39 H13       -10.9074   -5.0431    6.2691 HA        1 <0>        0.00000
     40 H14       -11.5027   -3.0115    7.5633 HA        1 <0>        0.00000
@<TRIPOS>BOND
     1    1   18 1
     2    2    5 2
     3    2    6 2
     4    2   10 1
     5    2   12 1
     6    3    7 2
     7    3    8 2
     8    3   11 1
     9    3   15 1
    10    4   19 1
    11    4   20 1
    12    9   13 1
    13    9   16 1
    14   10   16 2
    15   12   13 ar
    16   12   14 ar
    17   13   17 ar
    18   14   15 ar
    19   15   18 ar
    20   16   19 1
    21   17   18 ar
    22   20   21 1
    23   21   22 ar
    24   21   23 ar
    25   22   24 ar
    26   23   25 ar
    27   24   26 ar
    28   25   26 ar
    29    9   27 1
    30   11   28 1
    31   11   29 1
    32   14   30 1
    33   17   31 1
    34   19   32 1
    35   19   33 1
    36   20   34 1
    37   20   35 1
    38   22   36 1
    39   23   37 1
    40   24   38 1
    41   25   39 1
    42   26   40 1
@<TRIPOS>SUBSTRUCTURE
     1 <0>         1 GROUP 0 A     ****
@<TRIPOS>MOLECULE
MiniDrugBank_216
   46    49     1     0     0
SMALL
NO_CHARGES

@<TRIPOS>ATOM
      1 C1          1.7454    4.3937   -1.3510 CA        1 <0>        0.00000
      2 C2          2.1365    5.7153   -1.6205 CB        1 <0>        0.00000
      3 C3          3.3782    6.2135   -1.1937 CA        1 <0>        0.00000
      4 C4          3.7505    7.5293   -1.4702 CA        1 <0>        0.00000
      5 C5          2.8886    8.3637   -2.1758 CA        1 <0>        0.00000
      6 C6          1.6511    7.8855   -2.6075 CA        1 <0>        0.00000
      7 C7          1.2600    6.5639   -2.3380 CB        1 <0>        0.00000
      8 C8          0.0182    6.0657   -2.7648 CA        1 <0>        0.00000
      9 C9         -0.3541    4.7499   -2.4882 CA        1 <0>        0.00000
     10 C10         0.5079    3.9155   -1.7827 CA        1 <0>        0.00000
     11 C11         0.1039    2.4920   -1.4838 CT        1 <0>        0.00000
     12 C12         0.0885    2.1560   -0.0064 CT        1 <0>        0.00000
     13 N1          1.0251    1.4977   -2.0466 N3        1 <0>        0.00000
     14 O1          0.9484    0.3241   -1.1725 OS        1 <0>        0.00000
     15 C13         0.1119    0.6376   -0.0470 CT        1 <0>        0.00000
     16 O2         -1.2355    0.1800   -0.2423 OS        1 <0>        0.00000
     17 C14        -1.3404   -1.2383   -0.3898 CT        1 <0>        0.00000
     18 C15        -2.8087   -1.5605   -0.6523 CT        1 <0>        0.00000
     19 O3         -3.2103   -0.8968   -1.8365 OH        1 <0>        0.00000
     20 C16        -0.8211   -1.9550    0.8589 CT        1 <0>        0.00000
     21 O4         -0.8262   -3.3616    0.6277 OH        1 <0>        0.00000
     22 C17         0.5987   -1.5042    1.2039 CT        1 <0>        0.00000
     23 O5          0.9245   -2.0285    2.4923 OH        1 <0>        0.00000
     24 C18         0.6822    0.0228    1.2387 CT        1 <0>        0.00000
     25 O6          2.0408    0.4225    1.4019 OH        1 <0>        0.00000
     26 H1         -0.9084    2.3331   -1.9175 H1        1 <0>        0.00000
     27 H2         -0.7741   -1.5553   -1.2752 H1        1 <0>        0.00000
     28 H3         -1.4837   -1.7584    1.7117 H1        1 <0>        0.00000
     29 H4          1.3241   -1.9311    0.5015 H1        1 <0>        0.00000
     30 H5          0.1202    0.3905    2.1095 H1        1 <0>        0.00000
     31 H6          2.4104    3.7300   -0.8008 HA        1 <0>        0.00000
     32 H7          4.0682    5.5793   -0.6404 HA        1 <0>        0.00000
     33 H8          4.7133    7.9025   -1.1337 HA        1 <0>        0.00000
     34 H9          3.1790    9.3882   -2.3902 HA        1 <0>        0.00000
     35 H10         0.9934    8.5554   -3.1574 HA        1 <0>        0.00000
     36 H11        -0.6718    6.7007   -3.3166 HA        1 <0>        0.00000
     37 H12        -1.3206    4.3860   -2.8269 HA        1 <0>        0.00000
     38 H13         0.9791    2.5703    0.4807 HC        1 <0>        0.00000
     39 H14        -0.7973    2.5574    0.4978 HC        1 <0>        0.00000
     40 H15         0.6350    1.1232   -2.9109 H         1 <0>        0.00000
     41 H16        -3.4197   -1.2134    0.1807 H1        1 <0>        0.00000
     42 H17        -2.9362   -2.6352   -0.7801 H1        1 <0>        0.00000
     43 H18        -4.1463   -1.1159   -1.9835 HO        1 <0>        0.00000
     44 H19        -0.4921   -3.7756    1.4385 HO        1 <0>        0.00000
     45 H20         1.8252   -1.7304    2.6877 HO        1 <0>        0.00000
     46 H21         2.5257    0.0668    0.6415 HO        1 <0>        0.00000
@<TRIPOS>BOND
     1    1   10 ar
     2    1    2 ar
     3    2    7 ar
     4    2    3 ar
     5    3    4 ar
     6    4    5 ar
     7    5    6 ar
     8    7    8 ar
     9    6    7 ar
    10    8    9 ar
    11    9   10 ar
    12   10   11 1
    13   11   26 1
    14   11   12 1
    15   11   13 1
    16   13   14 1
    17   15   16 1
    18   14   15 1
    19   12   15 1
    20   17   18 1
    21   16   17 1
    22   17   27 1
    23   18   19 1
    24   17   20 1
    25   20   28 1
    26   20   21 1
    27   20   22 1
    28   22   24 1
    29   22   29 1
    30   22   23 1
    31   15   24 1
    32   24   30 1
    33   24   25 1
    34    1   31 1
    35    3   32 1
    36    4   33 1
    37    5   34 1
    38    6   35 1
    39    8   36 1
    40    9   37 1
    41   12   38 1
    42   12   39 1
    43   13   40 1
    44   18   41 1
    45   18   42 1
    46   19   43 1
    47   21   44 1
    48   23   45 1
    49   25   46 1
@<TRIPOS>SUBSTRUCTURE
     1 <0>         1 GROUP 0 A     ****
@<TRIPOS>MOLECULE
MiniDrugBank_217
   61    62     1     0     0
SMALL
NO_CHARGES

@<TRIPOS>ATOM
      1 N1          3.2705    2.3976   -2.9850 NC        1 <0>        0.00000
      2 C1          3.8867    1.2089   -2.8410 CA        1 <0>        0.00000
      3 C2          2.2428    2.6124   -2.1376 CP        1 <0>        0.00000
      4 C3          1.8312    1.7024   -1.1853 CA        1 <0>        0.00000
      5 C4          2.5449    0.5222   -1.1396 CA        1 <0>        0.00000
      6 N2          3.5820    0.2411   -1.9555 NC        1 <0>        0.00000
      7 N3          4.9806    0.9476   -3.7189 N3        1 <0>        0.00000
      8 C5          2.2027   -0.5460   -0.1516 CT        1 <0>        0.00000
      9 C6          3.3548   -0.8268    0.8296 CT        1 <0>        0.00000
     10 C7          1.7620   -1.8541   -0.8325 CT        1 <0>        0.00000
     11 C8          1.6008    3.8971   -2.3177 CP        1 <0>        0.00000
     12 C9          1.0171    4.2195   -3.5428 CA        1 <0>        0.00000
     13 C10         0.3985    5.4575   -3.7163 CA        1 <0>        0.00000
     14 C11         0.3635    6.3732   -2.6646 CA        1 <0>        0.00000
     15 C12         0.9472    6.0508   -1.4395 CA        1 <0>        0.00000
     16 C13         1.5658    4.8127   -1.2660 CA        1 <0>        0.00000
     17 F1         -0.2306    7.5622   -2.8312 F         1 <0>        0.00000
     18 C14         0.7277    1.9566   -0.2907 CM        1 <0>        0.00000
     19 C15        -0.5521    2.2023   -0.6233 CM        1 <0>        0.00000
     20 C16        -1.6940    2.4574    0.3342 CT        1 <0>        0.00000
     21 C17        -2.7928    1.3958    0.1486 CT        1 <0>        0.00000
     22 C18        -2.3086   -0.0401    0.4017 CT        1 <0>        0.00000
     23 C19        -3.4088   -1.0871    0.2144 CT        1 <0>        0.00000
     24 C20        -2.8709   -2.4805   -0.0149 C         1 <0>        0.00000
     25 O1         -1.6780   -2.7546   -0.0491 O         1 <0>        0.00000
     26 O2         -3.8501   -3.3995   -0.2031 OH        1 <0>        0.00000
     27 O3         -1.7747   -0.1312    1.7203 OH        1 <0>        0.00000
     28 O4         -2.2414    3.7581    0.1438 OH        1 <0>        0.00000
     29 C21         4.2365   -0.7594   -5.6939 CT        1 <0>        0.00000
     30 O5          5.8872    1.2019   -6.1429 O2        1 <0>        0.00000
     31 S1          4.6569    0.9485   -5.4156 SO        1 <0>        0.00000
     32 O6          3.4715    1.7379   -5.6926 O2        1 <0>        0.00000
     33 C22         6.0586    0.0422   -3.2260 CT        1 <0>        0.00000
     34 H1          1.3465   -0.2199    0.4671 HC        1 <0>        0.00000
     35 H2          3.0918   -1.6110    1.5479 HC        1 <0>        0.00000
     36 H3          3.6206    0.0702    1.3995 HC        1 <0>        0.00000
     37 H4          4.2482   -1.1567    0.2877 HC        1 <0>        0.00000
     38 H5          1.5190   -2.6144   -0.0818 HC        1 <0>        0.00000
     39 H6          2.5545   -2.2567   -1.4728 HC        1 <0>        0.00000
     40 H7          0.8742   -1.7055   -1.4569 HC        1 <0>        0.00000
     41 H8          1.0364    3.5166   -4.3723 HA        1 <0>        0.00000
     42 H9         -0.0557    5.7093   -4.6701 HA        1 <0>        0.00000
     43 H10         0.9195    6.7639   -0.6208 HA        1 <0>        0.00000
     44 H11         2.0160    4.5761   -0.3048 HA        1 <0>        0.00000
     45 H12         0.9707    1.9350    0.7703 HA        1 <0>        0.00000
     46 H13        -0.8443    2.2147   -1.6708 HA        1 <0>        0.00000
     47 H14        -1.2866    2.4145    1.3512 H1        1 <0>        0.00000
     48 H15        -3.6231    1.6082    0.8348 HC        1 <0>        0.00000
     49 H16        -3.1757    1.4745   -0.8768 HC        1 <0>        0.00000
     50 H17        -1.4962   -0.2805   -0.2932 H1        1 <0>        0.00000
     51 H18        -4.0783   -0.8056   -0.6060 HC        1 <0>        0.00000
     52 H19        -4.0361   -1.1419    1.1132 HC        1 <0>        0.00000
     53 H20        -4.7672   -3.0556   -0.1515 HO        1 <0>        0.00000
     54 H21        -1.4828   -1.0485    1.8370 HO        1 <0>        0.00000
     55 H22        -2.9627    3.8522    0.7856 HO        1 <0>        0.00000
     56 H23         4.0065   -0.8892   -6.7526 H1        1 <0>        0.00000
     57 H24         5.0913   -1.3750   -5.4100 H1        1 <0>        0.00000
     58 H25         3.3679   -1.0044   -5.0809 H1        1 <0>        0.00000
     59 H26         6.7918   -0.0403   -4.0087 H1        1 <0>        0.00000
     60 H27         5.6072   -0.9098   -3.0084 H1        1 <0>        0.00000
     61 H28         6.4768    0.4887   -2.3412 H1        1 <0>        0.00000
@<TRIPOS>BOND
     1    1    2 ar
     2    2    7 1
     3    1    3 ar
     4    3   11 1
     5    3    4 ar
     6    4   18 1
     7    4    5 ar
     8    5    8 1
     9    2    6 ar
    10    5    6 ar
    11    7   31 1
    12    7   33 1
    13    8    9 1
    14    8   10 1
    15   11   12 ar
    16   11   16 ar
    17   12   13 ar
    18   13   14 ar
    19   14   15 ar
    20   14   17 1
    21   15   16 ar
    22   18   19 2
    23   19   20 1
    24   20   21 1
    25   20   28 1
    26   21   22 1
    27   22   23 1
    28   22   27 1
    29   23   24 1
    30   24   25 2
    31   24   26 1
    32   29   31 1
    33   30   31 2
    34   31   32 2
    35    8   34 1
    36    9   35 1
    37    9   36 1
    38    9   37 1
    39   10   38 1
    40   10   39 1
    41   10   40 1
    42   12   41 1
    43   13   42 1
    44   15   43 1
    45   16   44 1
    46   18   45 1
    47   19   46 1
    48   20   47 1
    49   21   48 1
    50   21   49 1
    51   22   50 1
    52   23   51 1
    53   23   52 1
    54   26   53 1
    55   27   54 1
    56   28   55 1
    57   29   56 1
    58   29   57 1
    59   29   58 1
    60   33   59 1
    61   33   60 1
    62   33   61 1
@<TRIPOS>SUBSTRUCTURE
     1 <0>         1 GROUP 0 A     ****
@<TRIPOS>MOLECULE
MiniDrugBank_218
   58    62     1     0     0
SMALL
NO_CHARGES

@<TRIPOS>ATOM
      1 O1        -12.2905   -4.2952   -3.9302 OH        1 <0>        0.00000
      2 C1        -11.6984   -3.3926   -3.1119 C         1 <0>        0.00000
      3 O2        -11.1114   -3.7254   -2.0875 O         1 <0>        0.00000
      4 C2        -11.8266   -1.9439   -3.5592 CT        1 <0>        0.00000
      5 C3        -13.3071   -1.5500   -3.6413 CT        1 <0>        0.00000
      6 C4        -13.5518   -0.3631   -4.5418 CA        1 <0>        0.00000
      7 C5        -13.5189    0.9289   -4.0174 CA        1 <0>        0.00000
      8 C6        -13.7448    2.0254   -4.8495 CA        1 <0>        0.00000
      9 C7        -14.0036    1.8297   -6.2062 CA        1 <0>        0.00000
     10 C8        -14.0365    0.5376   -6.7306 CA        1 <0>        0.00000
     11 C9        -13.8106   -0.5588   -5.8985 CA        1 <0>        0.00000
     12 N1        -11.0895   -1.0560   -2.6711 N         1 <0>        0.00000
     13 C10       -10.0456   -0.2847   -3.2881 CT        1 <0>        0.00000
     14 C11        -8.7472   -0.9924   -3.2651 CW        1 <0>        0.00000
     15 C12        -8.4840   -2.3105   -3.5674 CC        1 <0>        0.00000
     16 C13        -7.1021   -2.6268   -3.4234 CC        1 <0>        0.00000
     17 C14        -6.3618   -1.5385   -3.0169 CW        1 <0>        0.00000
     18 S1         -7.3318   -0.1425   -2.8104 S         1 <0>        0.00000
     19 C15        -4.9640   -1.4931   -2.7738 CW        1 <0>        0.00000
     20 C16        -4.0648   -2.5271   -2.8948 CC        1 <0>        0.00000
     21 C17        -2.7951   -1.9963   -2.5454 CB        1 <0>        0.00000
     22 C18        -3.0174   -0.6591   -2.2325 CB        1 <0>        0.00000
     23 O3         -4.3387   -0.3557   -2.3724 OS        1 <0>        0.00000
     24 C19        -2.0180    0.2271   -1.8350 CA        1 <0>        0.00000
     25 C20        -0.7223   -0.2922   -1.7561 CA        1 <0>        0.00000
     26 C21        -0.4577   -1.6296   -2.0620 CA        1 <0>        0.00000
     27 C22        -1.4844   -2.4973   -2.4589 CA        1 <0>        0.00000
     28 C23       -11.4291   -1.0057   -1.3152 C         1 <0>        0.00000
     29 O4        -12.3216   -1.6613   -0.7789 O         1 <0>        0.00000
     30 C24       -10.6583   -0.1132   -0.4350 CA        1 <0>        0.00000
     31 C25       -11.1161    1.1930   -0.2625 CA        1 <0>        0.00000
     32 C26       -10.4177    2.0734    0.5638 CA        1 <0>        0.00000
     33 C27        -9.2615    1.6476    1.2177 CA        1 <0>        0.00000
     34 Cl1        -8.3999    2.7337    2.2374 CL        1 <0>        0.00000
     35 C28        -8.8037    0.3413    1.0452 CA        1 <0>        0.00000
     36 C29        -9.5021   -0.5391    0.2189 CA        1 <0>        0.00000
     37 Cl2        -8.9018   -2.1476    0.0309 CL        1 <0>        0.00000
     38 H1        -12.7288   -3.9111   -4.7186 HO        1 <0>        0.00000
     39 H2        -11.3382   -1.8679   -4.5376 H1        1 <0>        0.00000
     40 H3        -13.9069   -2.3904   -4.0155 HC        1 <0>        0.00000
     41 H4        -13.6989   -1.3402   -2.6366 HC        1 <0>        0.00000
     42 H5        -13.3185    1.0915   -2.9616 HA        1 <0>        0.00000
     43 H6        -13.7186    3.0314   -4.4413 HA        1 <0>        0.00000
     44 H7        -14.1796    2.6836   -6.8539 HA        1 <0>        0.00000
     45 H8        -14.2382    0.3851   -7.7869 HA        1 <0>        0.00000
     46 H9        -13.8376   -1.5620   -6.3155 HA        1 <0>        0.00000
     47 H10        -9.9738    0.6710   -2.7575 H1        1 <0>        0.00000
     48 H11       -10.3548   -0.0640   -4.3152 H1        1 <0>        0.00000
     49 H12        -9.2436   -3.0175   -3.8760 HA        1 <0>        0.00000
     50 H13        -6.6812   -3.6072   -3.6106 HA        1 <0>        0.00000
     51 H14        -4.2875   -3.5419   -3.1959 HA        1 <0>        0.00000
     52 H15        -2.2312    1.2632   -1.6005 HA        1 <0>        0.00000
     53 H16         0.0942    0.3575   -1.4518 HA        1 <0>        0.00000
     54 H17         0.5607   -2.0040   -1.9927 HA        1 <0>        0.00000
     55 H18        -1.2633   -3.5340   -2.6941 HA        1 <0>        0.00000
     56 H19       -12.0158    1.5373   -0.7661 HA        1 <0>        0.00000
     57 H20       -10.7867    3.0882    0.6891 HA        1 <0>        0.00000
     58 H21        -7.9020    0.0114    1.5573 HA        1 <0>        0.00000
@<TRIPOS>BOND
     1    1    2 1
     2    2    3 2
     3    2    4 1
     4    4    5 1
     5    5    6 1
     6    6    7 ar
     7    7    8 ar
     8    8    9 ar
     9    9   10 ar
    10   10   11 ar
    11    6   11 ar
    12    4   12 1
    13   12   13 1
    14   13   14 1
    15   14   15 2
    16   15   16 1
    17   16   17 2
    18   17   18 1
    19   14   18 1
    20   17   19 1
    21   19   20 2
    22   20   21 1
    23   21   22 ar
    24   22   23 1
    25   19   23 1
    26   22   24 ar
    27   24   25 ar
    28   25   26 ar
    29   26   27 ar
    30   21   27 ar
    31   12   28 am
    32   28   29 2
    33   28   30 1
    34   30   31 ar
    35   31   32 ar
    36   32   33 ar
    37   33   34 1
    38   33   35 ar
    39   35   36 ar
    40   30   36 ar
    41   36   37 1
    42    1   38 1
    43    4   39 1
    44    5   40 1
    45    5   41 1
    46    7   42 1
    47    8   43 1
    48    9   44 1
    49   10   45 1
    50   11   46 1
    51   13   47 1
    52   13   48 1
    53   15   49 1
    54   16   50 1
    55   20   51 1
    56   24   52 1
    57   25   53 1
    58   26   54 1
    59   27   55 1
    60   31   56 1
    61   32   57 1
    62   35   58 1
@<TRIPOS>SUBSTRUCTURE
     1 <0>         1 GROUP 0 A     ****
@<TRIPOS>MOLECULE
MiniDrugBank_219
    9     8     1     0     0
SMALL
NO_CHARGES

@<TRIPOS>ATOM
      1 N1          0.5731   -1.5640    0.1487 N         1 <0>        0.00000
      2 C1          0.5753   -0.2064    0.0994 CM        1 <0>        0.00000
      3 C2         -0.4742    0.5992   -0.0977 CM        1 <0>        0.00000
      4 S1         -0.3210    2.3192   -0.1369 SH        1 <0>        0.00000
      5 H1          1.4365   -2.0598    0.3047 H         1 <0>        0.00000
      6 H2         -0.2917   -2.0673    0.0291 H         1 <0>        0.00000
      7 H3          1.5752    0.1902    0.2443 H4        1 <0>        0.00000
      8 H4         -1.4654    0.1813   -0.2407 H4        1 <0>        0.00000
      9 H5         -1.6112    2.6089   -0.3532 HS        1 <0>        0.00000
@<TRIPOS>BOND
     1    1    2 1
     2    2    3 2
     3    3    4 1
     4    1    5 1
     5    1    6 1
     6    2    7 1
     7    3    8 1
     8    4    9 1
@<TRIPOS>SUBSTRUCTURE
     1 <0>         1 GROUP 0 A     ****
@<TRIPOS>MOLECULE
MiniDrugBank_220
   79    82     1     0     0
SMALL
NO_CHARGES

@<TRIPOS>ATOM
      1 C1         -5.6683    5.4340   -2.1541 CT        1 <0>        0.00000
      2 C2         -4.3204    4.9708   -2.5978 C         1 <0>        0.00000
      3 O1         -4.0859    4.8527   -3.7948 O         1 <0>        0.00000
      4 N1         -3.4447    4.7124   -1.5606 N         1 <0>        0.00000
      5 C3         -2.0937    4.2540   -1.7655 CT        1 <0>        0.00000
      6 C4         -1.0935    5.4134   -1.8394 CT        1 <0>        0.00000
      7 C5          0.1947    5.0300   -2.5258 CA        1 <0>        0.00000
      8 C6          0.3240    5.1887   -3.9055 CA        1 <0>        0.00000
      9 C7          1.5150    4.8354   -4.5397 CA        1 <0>        0.00000
     10 C8          2.5770    4.3234   -3.7940 CA        1 <0>        0.00000
     11 C9          2.4477    4.1647   -2.4143 CA        1 <0>        0.00000
     12 C10         1.2566    4.5180   -1.7801 CA        1 <0>        0.00000
     13 P1          3.7787    3.5183   -1.4474 P         1 <0>        0.00000
     14 O2          3.2230    3.4987    0.0751 OH        1 <0>        0.00000
     15 O3          3.8258    1.9369   -1.7999 OH        1 <0>        0.00000
     16 O4          5.1184    4.1831   -1.5703 O         1 <0>        0.00000
     17 P2          4.0766    3.8831   -4.6206 P         1 <0>        0.00000
     18 O5          3.8099    4.2186   -6.1837 OH        1 <0>        0.00000
     19 O6          5.1366    5.0393   -4.2128 OH        1 <0>        0.00000
     20 O7          4.6120    2.4982   -4.4045 O         1 <0>        0.00000
     21 C11        -1.7493    3.3291   -0.6035 C         1 <0>        0.00000
     22 O8         -2.1644    3.5076    0.5396 O         1 <0>        0.00000
     23 N2         -0.9661    2.2567   -1.0076 N         1 <0>        0.00000
     24 C12        -0.5394    1.2048   -0.1138 CT        1 <0>        0.00000
     25 C13         0.8150    1.5524    0.5064 CT        1 <0>        0.00000
     26 C14         1.0670    0.8575    1.8433 CT        1 <0>        0.00000
     27 C15         1.1337   -0.6660    1.7670 CT        1 <0>        0.00000
     28 C16        -0.1507   -1.3005    1.2451 CT        1 <0>        0.00000
     29 N3         -0.2384   -1.2514   -0.2154 N         1 <0>        0.00000
     30 C17        -0.0652   -2.5174   -0.9166 CT        1 <0>        0.00000
     31 C18         1.3705   -2.7588   -1.2517 CA        1 <0>        0.00000
     32 C19         2.1920   -3.4363   -0.3508 CA        1 <0>        0.00000
     33 C20         3.5328   -3.6614   -0.6630 CA        1 <0>        0.00000
     34 C21         4.0519   -3.2092   -1.8761 CP        1 <0>        0.00000
     35 C22         3.2303   -2.5318   -2.7771 CA        1 <0>        0.00000
     36 C23         1.8896   -2.3066   -2.4649 CA        1 <0>        0.00000
     37 C24         5.4423   -3.4431   -2.2005 CP        1 <0>        0.00000
     38 C25         6.1303   -2.5416   -3.0127 CA        1 <0>        0.00000
     39 C26         7.4708   -2.7673   -3.3254 CA        1 <0>        0.00000
     40 C27         8.1233   -3.8944   -2.8259 CA        1 <0>        0.00000
     41 C28         7.4353   -4.7958   -2.0136 CA        1 <0>        0.00000
     42 C29         6.0949   -4.5702   -1.7009 CA        1 <0>        0.00000
     43 C30        -0.4696   -0.0798   -0.9401 C         1 <0>        0.00000
     44 O9         -0.5865   -0.0562   -2.1683 O         1 <0>        0.00000
     45 H1         -6.3693    4.5985   -1.9968 HC        1 <0>        0.00000
     46 H2         -5.6332    5.9696   -1.1919 HC        1 <0>        0.00000
     47 H3         -6.1835    6.1178   -2.8475 HC        1 <0>        0.00000
     48 H4         -3.7686    4.8522   -0.6082 H         1 <0>        0.00000
     49 H5         -2.0976    3.6704   -2.6936 H1        1 <0>        0.00000
     50 H6         -0.8764    5.7933   -0.8319 HC        1 <0>        0.00000
     51 H7         -1.5310    6.2635   -2.3795 HC        1 <0>        0.00000
     52 H8         -0.4976    5.5871   -4.4948 HA        1 <0>        0.00000
     53 H9          1.6108    4.9609   -5.6145 HA        1 <0>        0.00000
     54 H10         1.1595    4.3932   -0.7047 HA        1 <0>        0.00000
     55 H11         3.7547    3.0412    0.7608 HO        1 <0>        0.00000
     56 H12         4.4052    1.3557   -1.2629 HO        1 <0>        0.00000
     57 H13         4.5677    4.1807   -6.8053 HO        1 <0>        0.00000
     58 H14         5.9997    5.0666   -4.6778 HO        1 <0>        0.00000
     59 H15        -0.6785    2.2091   -1.9806 H         1 <0>        0.00000
     60 H16        -1.3277    1.1271    0.6385 H1        1 <0>        0.00000
     61 H17         1.6291    1.3150   -0.1906 HC        1 <0>        0.00000
     62 H18         0.8723    2.6338    0.6873 HC        1 <0>        0.00000
     63 H19         2.0163    1.2241    2.2531 HC        1 <0>        0.00000
     64 H20         0.2889    1.1527    2.5583 HC        1 <0>        0.00000
     65 H21         1.9897   -0.9725    1.1535 HC        1 <0>        0.00000
     66 H22         1.3187   -1.0410    2.7812 HC        1 <0>        0.00000
     67 H23        -0.1855   -2.3519    1.5549 H1        1 <0>        0.00000
     68 H24        -1.0341   -0.8156    1.6738 H1        1 <0>        0.00000
     69 H25        -0.6827   -2.4704   -1.8128 H1        1 <0>        0.00000
     70 H26        -0.4677   -3.2939   -0.2677 H1        1 <0>        0.00000
     71 H27         1.7964   -3.7926    0.5967 HA        1 <0>        0.00000
     72 H28         4.1600   -4.1906    0.0506 HA        1 <0>        0.00000
     73 H29         3.6211   -2.1727   -3.7261 HA        1 <0>        0.00000
     74 H30         1.2563   -1.7785   -3.1729 HA        1 <0>        0.00000
     75 H31         5.6358   -1.6578   -3.4087 HA        1 <0>        0.00000
     76 H32         8.0072   -2.0651   -3.9570 HA        1 <0>        0.00000
     77 H33         9.1671   -4.0705   -3.0692 HA        1 <0>        0.00000
     78 H34         7.9428   -5.6740   -1.6252 HA        1 <0>        0.00000
     79 H35         5.5718   -5.2825   -1.0673 HA        1 <0>        0.00000
@<TRIPOS>BOND
     1    1    2 1
     2    2    3 2
     3    2    4 am
     4    4    5 1
     5    5    6 1
     6    6    7 1
     7    7    8 ar
     8    8    9 ar
     9    9   10 ar
    10   10   11 ar
    11   11   12 ar
    12    7   12 ar
    13   11   13 1
    14   13   14 1
    15   13   15 1
    16   13   16 2
    17   10   17 1
    18   17   18 1
    19   17   19 1
    20   17   20 2
    21    5   21 1
    22   21   22 2
    23   21   23 am
    24   23   24 1
    25   24   25 1
    26   25   26 1
    27   26   27 1
    28   27   28 1
    29   28   29 1
    30   29   30 1
    31   30   31 1
    32   31   32 ar
    33   32   33 ar
    34   33   34 ar
    35   34   35 ar
    36   35   36 ar
    37   31   36 ar
    38   34   37 1
    39   37   38 ar
    40   38   39 ar
    41   39   40 ar
    42   40   41 ar
    43   41   42 ar
    44   37   42 ar
    45   29   43 am
    46   24   43 1
    47   43   44 2
    48    1   45 1
    49    1   46 1
    50    1   47 1
    51    4   48 1
    52    5   49 1
    53    6   50 1
    54    6   51 1
    55    8   52 1
    56    9   53 1
    57   12   54 1
    58   14   55 1
    59   15   56 1
    60   18   57 1
    61   19   58 1
    62   23   59 1
    63   24   60 1
    64   25   61 1
    65   25   62 1
    66   26   63 1
    67   26   64 1
    68   27   65 1
    69   27   66 1
    70   28   67 1
    71   28   68 1
    72   30   69 1
    73   30   70 1
    74   32   71 1
    75   33   72 1
    76   35   73 1
    77   36   74 1
    78   38   75 1
    79   39   76 1
    80   40   77 1
    81   41   78 1
    82   42   79 1
@<TRIPOS>SUBSTRUCTURE
     1 <0>         1 GROUP 0 A     ****
@<TRIPOS>MOLECULE
MiniDrugBank_221
   63    64     1     0     0
SMALL
NO_CHARGES

@<TRIPOS>ATOM
      1 C1          4.7196   -0.3598    4.0010 CA        1 <0>        0.00000
      2 C2          5.3138   -1.2285    4.9165 CA        1 <0>        0.00000
      3 C3          6.2922   -2.1271    4.4914 CA        1 <0>        0.00000
      4 C4          6.6765   -2.1572    3.1508 CA        1 <0>        0.00000
      5 C5          6.0823   -1.2886    2.2353 CA        1 <0>        0.00000
      6 C6          5.1039   -0.3899    2.6604 CA        1 <0>        0.00000
      7 C7          4.4614    0.5502    1.6693 CT        1 <0>        0.00000
      8 C8          3.2156   -0.0348    1.0149 CT        1 <0>        0.00000
      9 S1          2.4607    1.0731   -0.1513 SO        1 <0>        0.00000
     10 O1          3.3887    1.2221   -1.2562 O2        1 <0>        0.00000
     11 O2          1.9874    2.2312    0.5809 O2        1 <0>        0.00000
     12 N1          1.1451    0.1383   -0.6755 N3        1 <0>        0.00000
     13 C9         -0.1708    0.1969    0.0088 CT        1 <0>        0.00000
     14 C10        -1.0008    1.3351   -0.6202 CT        1 <0>        0.00000
     15 C11        -2.1315    1.7931    0.3026 CT        1 <0>        0.00000
     16 C12        -1.5658    0.9950   -2.0005 CT        1 <0>        0.00000
     17 P1         -0.8289   -1.4680   -0.0727 P         1 <0>        0.00000
     18 O3         -0.6238   -1.9014   -1.6171 OH        1 <0>        0.00000
     19 O4         -2.2384   -1.6268    0.4174 O         1 <0>        0.00000
     20 C13         0.3255   -2.5365    0.7678 CT        1 <0>        0.00000
     21 C14         0.1997   -2.5119    2.3070 CT        1 <0>        0.00000
     22 C15         1.5171   -2.8833    2.9729 C         1 <0>        0.00000
     23 O5          2.3626   -3.6333    2.5030 O         1 <0>        0.00000
     24 O6          1.6673   -2.2798    4.1818 OH        1 <0>        0.00000
     25 C16        -0.9462   -3.3770    2.8089 CA        1 <0>        0.00000
     26 C17        -1.9848   -2.8030    3.5420 CA        1 <0>        0.00000
     27 C18        -0.9580   -4.7449    2.5362 CA        1 <0>        0.00000
     28 C19        -2.0085   -5.5388    2.9965 CA        1 <0>        0.00000
     29 C20        -3.0472   -4.9647    3.7295 CA        1 <0>        0.00000
     30 C21        -3.0353   -3.5968    4.0022 CA        1 <0>        0.00000
     31 C22        -4.1467   -2.9830    4.7848 CT        1 <0>        0.00000
     32 N2         -5.2235   -2.5277    3.9425 N3        1 <0>        0.00000
     33 H1         -0.0048    0.4294    1.0669 H1        1 <0>        0.00000
     34 H2         -0.0256   -1.4766    2.5977 HC        1 <0>        0.00000
     35 H3          3.9585    0.3374    4.3410 HA        1 <0>        0.00000
     36 H4          5.0146   -1.2049    5.9603 HA        1 <0>        0.00000
     37 H5          6.7557   -2.8023    5.2044 HA        1 <0>        0.00000
     38 H6          7.4389   -2.8562    2.8197 HA        1 <0>        0.00000
     39 H7          6.3880   -1.3195    1.1928 HA        1 <0>        0.00000
     40 H8          5.1943    0.7853    0.8863 HC        1 <0>        0.00000
     41 H9          4.2172    1.5042    2.1535 HC        1 <0>        0.00000
     42 H10         3.4804   -0.9325    0.4471 H1        1 <0>        0.00000
     43 H11         2.4475   -0.3041    1.7463 H1        1 <0>        0.00000
     44 H12         1.3015   -0.6535   -1.3109 H         1 <0>        0.00000
     45 H13        -0.3376    2.2004   -0.7525 HC        1 <0>        0.00000
     46 H14        -2.7038    2.6005   -0.1679 HC        1 <0>        0.00000
     47 H15        -1.7366    2.1763    1.2492 HC        1 <0>        0.00000
     48 H16        -2.8330    0.9837    0.5226 HC        1 <0>        0.00000
     49 H17        -2.1432    1.8395   -2.3930 HC        1 <0>        0.00000
     50 H18        -0.7693    0.7807   -2.7195 HC        1 <0>        0.00000
     51 H19        -2.2388    0.1334   -1.9610 HC        1 <0>        0.00000
     52 H20        -0.8263   -2.8233   -1.8845 HO        1 <0>        0.00000
     53 H21         1.3474   -2.2282    0.4853 HC        1 <0>        0.00000
     54 H22         0.2224   -3.5684    0.3885 HC        1 <0>        0.00000
     55 H23         0.9257   -1.6999    4.4572 HO        1 <0>        0.00000
     56 H24        -1.9762   -1.7362    3.7541 HA        1 <0>        0.00000
     57 H25        -0.1535   -5.2005    1.9653 HA        1 <0>        0.00000
     58 H26        -2.0176   -6.6037    2.7840 HA        1 <0>        0.00000
     59 H27        -3.8619   -5.5909    4.0832 HA        1 <0>        0.00000
     60 H28        -4.5695   -3.7004    5.5020 H1        1 <0>        0.00000
     61 H29        -3.7995   -2.1190    5.3680 H1        1 <0>        0.00000
     62 H30        -5.9212   -3.1876    3.6421 H         1 <0>        0.00000
     63 H31        -5.1533   -1.6238    3.5059 H         1 <0>        0.00000
@<TRIPOS>BOND
     1    1    2 ar
     2    1    6 ar
     3    2    3 ar
     4    3    4 ar
     5    4    5 ar
     6    5    6 ar
     7    6    7 1
     8    7    8 1
     9    8    9 1
    10    9   12 1
    11    9   11 2
    12    9   10 2
    13   12   13 1
    14   13   17 1
    15   13   14 1
    16   13   33 1
    17   14   15 1
    18   14   16 1
    19   17   20 1
    20   17   19 2
    21   17   18 1
    22   20   21 1
    23   21   25 1
    24   21   22 1
    25   21   34 1
    26   22   23 2
    27   22   24 1
    28   25   27 ar
    29   25   26 ar
    30   26   30 ar
    31   27   28 ar
    32   28   29 ar
    33   29   30 ar
    34   30   31 1
    35   31   32 1
    36    1   35 1
    37    2   36 1
    38    3   37 1
    39    4   38 1
    40    5   39 1
    41    7   40 1
    42    7   41 1
    43    8   42 1
    44    8   43 1
    45   12   44 1
    46   14   45 1
    47   15   46 1
    48   15   47 1
    49   15   48 1
    50   16   49 1
    51   16   50 1
    52   16   51 1
    53   18   52 1
    54   20   53 1
    55   20   54 1
    56   24   55 1
    57   26   56 1
    58   27   57 1
    59   28   58 1
    60   29   59 1
    61   31   60 1
    62   31   61 1
    63   32   62 1
    64   32   63 1
@<TRIPOS>SUBSTRUCTURE
     1 <0>         1 GROUP 0 A     ****
@<TRIPOS>MOLECULE
MiniDrugBank_222
   81    83     1     0     0
SMALL
NO_CHARGES

@<TRIPOS>ATOM
      1 C1          3.3922   -3.2821    3.3020 CT        1 <0>        0.00000
      2 C2          2.0407   -3.6859    3.9017 CT        1 <0>        0.00000
      3 C3          2.2678   -4.2941    5.2902 CT        1 <0>        0.00000
      4 C4          1.0839   -2.4854    3.9679 CT        1 <0>        0.00000
      5 N1          1.7417   -1.2677    4.3622 N         1 <0>        0.00000
      6 C5          1.7866   -0.8340    5.6811 C         1 <0>        0.00000
      7 O1          1.2820   -1.4285    6.6300 O         1 <0>        0.00000
      8 C6          2.4814    0.4572    5.9203 CA        1 <0>        0.00000
      9 C7          3.0736    0.7119    7.1572 CA        1 <0>        0.00000
     10 C8          3.7263    1.9241    7.3816 CA        1 <0>        0.00000
     11 C9          3.7867    2.8816    6.3690 CA        1 <0>        0.00000
     12 C10         3.1946    2.6268    5.1321 CA        1 <0>        0.00000
     13 C11         2.5420    1.4147    4.9077 CA        1 <0>        0.00000
     14 C12         4.4727    4.1589    6.6058 C         1 <0>        0.00000
     15 O2          3.7825    5.0733    7.0538 O         1 <0>        0.00000
     16 N2          5.8359    4.2373    6.3157 N         1 <0>        0.00000
     17 C13         6.6632    3.1489    5.7811 CT        1 <0>        0.00000
     18 C14         7.5242    3.6575    4.6310 CT        1 <0>        0.00000
     19 O3          8.2846    4.7972    5.0398 OS        1 <0>        0.00000
     20 C15         7.4269    5.8747    5.4252 CT        1 <0>        0.00000
     21 C16         6.5728    5.4638    6.6157 CT        1 <0>        0.00000
     22 C17         0.4994   -2.1343    2.6229 C         1 <0>        0.00000
     23 O4          1.1098   -1.3894    1.8543 O         1 <0>        0.00000
     24 N3         -0.7288   -2.7097    2.3368 N         1 <0>        0.00000
     25 C18        -1.4859   -3.5965    3.2167 CT        1 <0>        0.00000
     26 C19        -2.6961   -4.0190    2.3976 CT        1 <0>        0.00000
     27 C20        -2.9188   -2.8323    1.4632 CT        1 <0>        0.00000
     28 C21        -1.5050   -2.3523    1.1567 CT        1 <0>        0.00000
     29 C22        -0.9067   -3.0875   -0.0047 C         1 <0>        0.00000
     30 O5         -0.3630   -4.1700    0.1808 O         1 <0>        0.00000
     31 N4         -1.0389   -2.4321   -1.2140 N         1 <0>        0.00000
     32 C23        -0.5345   -2.9602   -2.4551 CT        1 <0>        0.00000
     33 C24         0.9052   -2.5169   -2.7776 CT        1 <0>        0.00000
     34 C25         0.9948   -0.9913   -2.8844 CT        1 <0>        0.00000
     35 C26         1.9417   -3.0263   -1.7708 CT        1 <0>        0.00000
     36 C27        -1.5145   -2.5688   -3.5562 C         1 <0>        0.00000
     37 O6         -2.1874   -1.5381   -3.5015 O         1 <0>        0.00000
     38 C28        -1.6391   -3.5040   -4.7402 CT        1 <0>        0.00000
     39 F1         -1.9655   -2.8321   -5.8760 F         1 <0>        0.00000
     40 F2         -0.4491   -4.1147   -4.9906 F         1 <0>        0.00000
     41 C29        -2.6780   -4.5682   -4.4884 CT        1 <0>        0.00000
     42 F3         -3.8965   -4.0319   -4.2665 F         1 <0>        0.00000
     43 F4         -2.3561   -5.3247   -3.4172 F         1 <0>        0.00000
     44 F5         -2.7816   -5.3917   -5.5548 F         1 <0>        0.00000
     45 H1          3.2709   -2.8422    2.3070 HC        1 <0>        0.00000
     46 H2          4.0459   -4.1546    3.1959 HC        1 <0>        0.00000
     47 H3          3.9051   -2.5512    3.9366 HC        1 <0>        0.00000
     48 H4          1.6070   -4.4647    3.2602 HC        1 <0>        0.00000
     49 H5          1.3206   -4.5953    5.7507 HC        1 <0>        0.00000
     50 H6          2.9160   -5.1747    5.2379 HC        1 <0>        0.00000
     51 H7          2.7523   -3.5715    5.9559 HC        1 <0>        0.00000
     52 H8          0.2570   -2.6609    4.6634 H1        1 <0>        0.00000
     53 H9          2.1920   -0.7018    3.6462 H         1 <0>        0.00000
     54 H10         3.0325   -0.0270    7.9534 HA        1 <0>        0.00000
     55 H11         4.1842    2.1120    8.3495 HA        1 <0>        0.00000
     56 H12         3.2352    3.3660    4.3360 HA        1 <0>        0.00000
     57 H13         2.0842    1.2268    3.9398 HA        1 <0>        0.00000
     58 H14         7.3006    2.8124    6.6073 H1        1 <0>        0.00000
     59 H15         6.0587    2.3007    5.4516 H1        1 <0>        0.00000
     60 H16         8.2270    2.8799    4.3159 H1        1 <0>        0.00000
     61 H17         6.9106    3.9264    3.7629 H1        1 <0>        0.00000
     62 H18         8.0575    6.7284    5.6917 H1        1 <0>        0.00000
     63 H19         6.8074    6.1680    4.5694 H1        1 <0>        0.00000
     64 H20         7.2096    5.2402    7.4797 H1        1 <0>        0.00000
     65 H21         5.8903    6.2716    6.8971 H1        1 <0>        0.00000
     66 H22        -0.8742   -4.4453    3.5345 H1        1 <0>        0.00000
     67 H23        -1.7849   -3.0206    4.0992 H1        1 <0>        0.00000
     68 H24        -2.4602   -4.9163    1.8134 HC        1 <0>        0.00000
     69 H25        -3.5679   -4.2402    3.0195 HC        1 <0>        0.00000
     70 H26        -3.4926   -3.1083    0.5733 HC        1 <0>        0.00000
     71 H27        -3.4684   -2.0486    1.9988 HC        1 <0>        0.00000
     72 H28        -1.4477   -1.2784    0.9581 H1        1 <0>        0.00000
     73 H29        -1.5147   -1.5350   -1.2281 H         1 <0>        0.00000
     74 H30        -0.5775   -4.0503   -2.3511 H1        1 <0>        0.00000
     75 H31         1.1781   -2.9278   -3.7584 HC        1 <0>        0.00000
     76 H32         2.0192   -0.6791   -3.1138 HC        1 <0>        0.00000
     77 H33         0.3475   -0.6187   -3.6853 HC        1 <0>        0.00000
     78 H34         0.6969   -0.5034   -1.9504 HC        1 <0>        0.00000
     79 H35         2.9496   -2.6914   -2.0334 HC        1 <0>        0.00000
     80 H36         1.7223   -2.6425   -0.7683 HC        1 <0>        0.00000
     81 H37         1.9474   -4.1196   -1.7120 HC        1 <0>        0.00000
@<TRIPOS>BOND
     1    1    2 1
     2    2    3 1
     3    2    4 1
     4    4    5 1
     5    5    6 am
     6    6    7 2
     7    6    8 1
     8    8    9 ar
     9    9   10 ar
    10   10   11 ar
    11   11   12 ar
    12   12   13 ar
    13    8   13 ar
    14   11   14 1
    15   14   15 2
    16   14   16 am
    17   16   17 1
    18   17   18 1
    19   18   19 1
    20   19   20 1
    21   20   21 1
    22   16   21 1
    23    4   22 1
    24   22   23 2
    25   22   24 am
    26   24   25 1
    27   25   26 1
    28   26   27 1
    29   27   28 1
    30   24   28 1
    31   28   29 1
    32   29   30 2
    33   29   31 am
    34   31   32 1
    35   32   33 1
    36   33   34 1
    37   33   35 1
    38   32   36 1
    39   36   37 2
    40   36   38 1
    41   38   39 1
    42   38   40 1
    43   38   41 1
    44   41   42 1
    45   41   43 1
    46   41   44 1
    47    1   45 1
    48    1   46 1
    49    1   47 1
    50    2   48 1
    51    3   49 1
    52    3   50 1
    53    3   51 1
    54    4   52 1
    55    5   53 1
    56    9   54 1
    57   10   55 1
    58   12   56 1
    59   13   57 1
    60   17   58 1
    61   17   59 1
    62   18   60 1
    63   18   61 1
    64   20   62 1
    65   20   63 1
    66   21   64 1
    67   21   65 1
    68   25   66 1
    69   25   67 1
    70   26   68 1
    71   26   69 1
    72   27   70 1
    73   27   71 1
    74   28   72 1
    75   31   73 1
    76   32   74 1
    77   33   75 1
    78   34   76 1
    79   34   77 1
    80   34   78 1
    81   35   79 1
    82   35   80 1
    83   35   81 1
@<TRIPOS>SUBSTRUCTURE
     1 <0>         1 GROUP 0 A     ****
@<TRIPOS>MOLECULE
MiniDrugBank_223
   28    29     1     0     0
SMALL
NO_CHARGES

@<TRIPOS>ATOM
      1 O1         -2.6926    2.4448   -1.2545 OH        1 <0>        0.00000
      2 C1         -1.8131    1.9659   -0.3613 C         1 <0>        0.00000
      3 O2         -1.5834    2.4176    0.7430 O         1 <0>        0.00000
      4 C2         -1.1109    0.7439   -0.9213 C         1 <0>        0.00000
      5 O3         -1.4101    0.3676   -2.0429 O         1 <0>        0.00000
      6 N1         -0.1970    0.2228   -0.0263 N         1 <0>        0.00000
      7 C3          0.6064   -0.8710   -0.2050 CW        1 <0>        0.00000
      8 C4          1.5395   -1.4603    0.6221 CC        1 <0>        0.00000
      9 C5          1.8347   -0.9577    1.9403 C         1 <0>        0.00000
     10 O4          2.2284   -1.9365    2.8086 OH        1 <0>        0.00000
     11 O5          1.7554    0.2285    2.3029 O         1 <0>        0.00000
     12 C6          2.1472   -2.5965    0.0141 CC        1 <0>        0.00000
     13 C7          1.6431   -2.8257   -1.2503 CW        1 <0>        0.00000
     14 C8          2.1027   -3.9308   -2.1478 CT        1 <0>        0.00000
     15 N2          2.8302   -4.9641   -1.3863 N3        1 <0>        0.00000
     16 C9          3.8381   -4.3740   -0.4908 CT        1 <0>        0.00000
     17 C10         3.1856   -3.5010    0.5984 CT        1 <0>        0.00000
     18 S1          0.4663   -1.6874   -1.7062 S         1 <0>        0.00000
     19 H1         -3.1639    3.2384   -0.9221 HO        1 <0>        0.00000
     20 H2         -0.1113    0.7059    0.8655 H         1 <0>        0.00000
     21 H3          2.4309   -1.6046    3.7092 HO        1 <0>        0.00000
     22 H4          1.2520   -4.4030   -2.6516 H1        1 <0>        0.00000
     23 H5          2.7605   -3.5262   -2.9261 H1        1 <0>        0.00000
     24 H6          3.3001   -5.5887   -2.0426 H         1 <0>        0.00000
     25 H7          4.4134   -5.1762   -0.0159 H1        1 <0>        0.00000
     26 H8          4.5500   -3.7820   -1.0800 H1        1 <0>        0.00000
     27 H9          2.7083   -4.1451    1.3474 HC        1 <0>        0.00000
     28 H10         3.9606   -2.9171    1.1075 HC        1 <0>        0.00000
@<TRIPOS>BOND
     1    1    2 1
     2    2    3 2
     3    2    4 1
     4    4    5 2
     5    4    6 am
     6    6    7 1
     7    7    8 2
     8    8    9 1
     9    9   10 1
    10    9   11 2
    11    8   12 1
    12   12   13 2
    13   13   14 1
    14   14   15 1
    15   15   16 1
    16   16   17 1
    17   12   17 1
    18   13   18 1
    19    7   18 1
    20    1   19 1
    21    6   20 1
    22   10   21 1
    23   14   22 1
    24   14   23 1
    25   15   24 1
    26   16   25 1
    27   16   26 1
    28   17   27 1
    29   17   28 1
@<TRIPOS>SUBSTRUCTURE
     1 <0>         1 GROUP 0 A     ****
@<TRIPOS>MOLECULE
MiniDrugBank_224
   43    45     1     0     0
SMALL
NO_CHARGES

@<TRIPOS>ATOM
      1 C1         -1.0242    1.5808   -5.0351 CA        1 <0>        0.00000
      2 C2         -1.3795    1.3976   -6.3715 CA        1 <0>        0.00000
      3 C3         -1.9632    0.1984   -6.7799 CA        1 <0>        0.00000
      4 C4         -2.3410    0.0019   -8.2091 CT        1 <0>        0.00000
      5 C5         -2.1917   -0.8176   -5.8519 CA        1 <0>        0.00000
      6 C6         -1.8364   -0.6344   -4.5155 CA        1 <0>        0.00000
      7 C7         -1.2527    0.5649   -4.1071 CA        1 <0>        0.00000
      8 C8         -0.8687    0.7637   -2.6608 CT        1 <0>        0.00000
      9 C9          0.1065   -0.2709   -2.1365 CT        1 <0>        0.00000
     10 N1         -2.0056    0.6532   -1.7393 N3        1 <0>        0.00000
     11 O1         -1.4573    0.1864   -0.4631 OS        1 <0>        0.00000
     12 C10        -0.0606   -0.1025   -0.6362 CT        1 <0>        0.00000
     13 O2          0.7657    0.9952   -0.2187 OS        1 <0>        0.00000
     14 C11         0.6298    1.3206    1.1682 CT        1 <0>        0.00000
     15 C12         1.5088    2.5408    1.4274 CT        1 <0>        0.00000
     16 O3          1.0576    3.6029    0.6072 OH        1 <0>        0.00000
     17 C13         1.0245    0.1291    2.0476 CT        1 <0>        0.00000
     18 O4          0.7451    0.4091    3.4168 OH        1 <0>        0.00000
     19 C14         0.2447   -1.1255    1.6522 CT        1 <0>        0.00000
     20 O5          0.8111   -2.2565    2.3172 OH        1 <0>        0.00000
     21 C15         0.3321   -1.3623    0.1451 CT        1 <0>        0.00000
     22 O6         -0.5234   -2.4453   -0.2127 OH        1 <0>        0.00000
     23 H1         -0.4270    1.7808   -2.5682 H1        1 <0>        0.00000
     24 H2         -0.4083    1.6178    1.3690 H1        1 <0>        0.00000
     25 H3          2.0989   -0.0736    1.9636 H1        1 <0>        0.00000
     26 H4         -0.7989   -1.0619    1.9831 H1        1 <0>        0.00000
     27 H5          1.3619   -1.6544   -0.1090 H1        1 <0>        0.00000
     28 H6         -0.5701    2.5187   -4.7259 HA        1 <0>        0.00000
     29 H7         -1.1979    2.1948   -7.0876 HA        1 <0>        0.00000
     30 H8         -1.5054   -0.4365   -8.7683 HC        1 <0>        0.00000
     31 H9         -3.2097   -0.6625   -8.3040 HC        1 <0>        0.00000
     32 H10        -2.6158    0.9533   -8.6830 HC        1 <0>        0.00000
     33 H11        -2.6459   -1.7552   -6.1604 HA        1 <0>        0.00000
     34 H12        -2.0181   -1.4312   -3.7990 HA        1 <0>        0.00000
     35 H13        -0.1897   -1.2701   -2.4769 HC        1 <0>        0.00000
     36 H14         1.1303   -0.0819   -2.4775 HC        1 <0>        0.00000
     37 H15        -2.3292    1.5858   -1.4842 H         1 <0>        0.00000
     38 H16         2.5454    2.3108    1.1820 H1        1 <0>        0.00000
     39 H17         1.4349    2.8366    2.4737 H1        1 <0>        0.00000
     40 H18         1.6306    4.3674    0.7888 HO        1 <0>        0.00000
     41 H19         1.0139   -0.3754    3.9195 HO        1 <0>        0.00000
     42 H20         0.2900   -3.0245    2.0399 HO        1 <0>        0.00000
     43 H21        -1.4205   -2.1849    0.0467 HO        1 <0>        0.00000
@<TRIPOS>BOND
     1    1    7 ar
     2    1    2 ar
     3    2    3 ar
     4    3    5 ar
     5    3    4 1
     6    5    6 ar
     7    6    7 ar
     8    7    8 1
     9    8   23 1
    10    8    9 1
    11    8   10 1
    12   10   11 1
    13   12   13 1
    14   11   12 1
    15    9   12 1
    16   14   15 1
    17   13   14 1
    18   14   24 1
    19   15   16 1
    20   14   17 1
    21   17   25 1
    22   17   18 1
    23   17   19 1
    24   19   21 1
    25   19   26 1
    26   19   20 1
    27   12   21 1
    28   21   27 1
    29   21   22 1
    30    1   28 1
    31    2   29 1
    32    4   30 1
    33    4   31 1
    34    4   32 1
    35    5   33 1
    36    6   34 1
    37    9   35 1
    38    9   36 1
    39   10   37 1
    40   15   38 1
    41   15   39 1
    42   16   40 1
    43   18   41 1
    44   20   42 1
    45   22   43 1
@<TRIPOS>SUBSTRUCTURE
     1 <0>         1 GROUP 0 A     ****
@<TRIPOS>MOLECULE
MiniDrugBank_225
   14    14     1     0     0
SMALL
NO_CHARGES

@<TRIPOS>ATOM
      1 O1          0.9108   -2.3858    3.6917 O         1 <0>        0.00000
      2 O2         -2.0198   -3.8509    0.4414 O         1 <0>        0.00000
      3 N1         -0.5571   -3.1299    2.0741 N         1 <0>        0.00000
      4 N2         -0.9711   -1.8194    0.1826 N         1 <0>        0.00000
      5 C1          0.5523   -0.9859    1.8041 CA        1 <0>        0.00000
      6 C2          0.3347   -2.2149    2.6202 C         1 <0>        0.00000
      7 C3         -0.1076   -0.8645    0.6463 CA        1 <0>        0.00000
      8 C4         -1.2418   -2.9953    0.8644 C         1 <0>        0.00000
      9 C5          1.4409    0.0289    2.2509 C2        1 <0>        0.00000
     10 C6          2.1887    0.8814    2.6256 C2        1 <0>        0.00000
     11 H1         -0.7278   -3.9790    2.6055 H         1 <0>        0.00000
     12 H2         -1.4368   -1.6584   -0.7055 H         1 <0>        0.00000
     13 H3         -0.0002    0.0000    0.0001 H4        1 <0>        0.00000
     14 H4          2.8564    1.6414    2.9587 HC        1 <0>        0.00000
@<TRIPOS>BOND
     1    1    6 2
     2    2    8 2
     3    3    6 am
     4    3    8 am
     5    4    7 1
     6    4    8 am
     7    5    6 1
     8    5    7 2
     9    5    9 1
    10    9   10 3
    11    3   11 1
    12    4   12 1
    13    7   13 1
    14   10   14 1
@<TRIPOS>SUBSTRUCTURE
     1 <0>         1 GROUP 0 A     ****
@<TRIPOS>MOLECULE
MiniDrugBank_226
   21    22     1     0     0
SMALL
NO_CHARGES

@<TRIPOS>ATOM
      1 Cl1         0.6175    0.1181   -0.0886 CL        1 <0>        0.00000
      2 S1         -3.4637   -3.4160    0.2963 SO        1 <0>        0.00000
      3 O1         -2.8240   -4.0694    1.4238 O2        1 <0>        0.00000
      4 O2         -3.2216   -3.8863   -1.0556 O2        1 <0>        0.00000
      5 N1         -5.1554   -0.9688    0.7419 NA        1 <0>        0.00000
      6 N2         -5.0703   -3.3636    0.5576 NC        1 <0>        0.00000
      7 C1         -2.8860   -1.7492    0.3268 CB        1 <0>        0.00000
      8 C2         -3.7951   -0.7151    0.5455 CB        1 <0>        0.00000
      9 C3         -5.6891   -2.2376    0.7363 CA        1 <0>        0.00000
     10 C4         -1.5251   -1.5128    0.1298 CA        1 <0>        0.00000
     11 C5         -3.3043    0.5959    0.5635 CA        1 <0>        0.00000
     12 C6         -1.0561   -0.2023    0.1514 CA        1 <0>        0.00000
     13 C7         -1.9439    0.8512    0.3679 CA        1 <0>        0.00000
     14 C8         -7.1813   -2.3174    0.9705 CT        1 <0>        0.00000
     15 H1         -5.7535   -0.1637    0.8949 H         1 <0>        0.00000
     16 H2         -0.8414   -2.3408   -0.0382 HA        1 <0>        0.00000
     17 H3         -3.9786    1.4327    0.7309 HA        1 <0>        0.00000
     18 H4         -1.5915    1.8796    0.3872 HA        1 <0>        0.00000
     19 H5         -7.6892   -2.2632    0.0149 HC        1 <0>        0.00000
     20 H6         -7.4821   -1.4895    1.6019 HC        1 <0>        0.00000
     21 H7         -7.4090   -3.2556    1.4629 HC        1 <0>        0.00000
@<TRIPOS>BOND
     1    1   12 1
     2    2    3 2
     3    2    4 2
     4    2    6 1
     5    2    7 1
     6    5    8 1
     7    5    9 1
     8    6    9 2
     9    7    8 ar
    10    7   10 ar
    11    8   11 ar
    12    9   14 1
    13   10   12 ar
    14   11   13 ar
    15   12   13 ar
    16    5   15 1
    17   10   16 1
    18   11   17 1
    19   13   18 1
    20   14   19 1
    21   14   20 1
    22   14   21 1
@<TRIPOS>SUBSTRUCTURE
     1 <0>         1 GROUP 0 A     ****
@<TRIPOS>MOLECULE
MiniDrugBank_227
   42    42     1     0     0
SMALL
NO_CHARGES

@<TRIPOS>ATOM
      1 C1          0.0327   -4.6799   -0.5005 CT        1 <0>        0.00000
      2 S1         -1.1473   -4.1240    0.7520 S         1 <0>        0.00000
      3 C2         -2.4681   -5.3336    0.4360 CT        1 <0>        0.00000
      4 C3         -3.3232   -4.9518   -0.7646 CT        1 <0>        0.00000
      5 N1         -3.9774   -3.6747   -0.6084 N         1 <0>        0.00000
      6 C4         -4.8296   -3.0176   -1.5031 CM        1 <0>        0.00000
      7 C5          1.2889   -3.8529   -0.5033 CC        1 <0>        0.00000
      8 N2          2.3374   -4.2498    0.3033 NB        1 <0>        0.00000
      9 C6          3.3310   -3.4016    0.1569 CR        1 <0>        0.00000
     10 S2          3.0725   -2.1028   -0.9346 S         1 <0>        0.00000
     11 C7          1.5007   -2.7125   -1.2494 CW        1 <0>        0.00000
     12 C8          4.6270   -3.5008    0.8628 CT        1 <0>        0.00000
     13 C9         -5.1056   -3.6186   -2.6808 CM        1 <0>        0.00000
     14 N3          4.6321   -2.7976    2.1258 N3        1 <0>        0.00000
     15 C10         6.0035   -2.5093    2.5641 CT        1 <0>        0.00000
     16 C11         3.9306   -3.5671    3.1612 CT        1 <0>        0.00000
     17 N4         -5.9644   -2.9945   -3.6232 N2        1 <0>        0.00000
     18 O1         -5.6236   -1.8840   -4.0568 O2        1 <0>        0.00000
     19 O2         -6.9945   -3.6043   -3.9467 O2        1 <0>        0.00000
     20 N5         -5.3630   -1.7746   -1.1557 N         1 <0>        0.00000
     21 C12        -5.1310   -1.0510    0.0726 CT        1 <0>        0.00000
     22 H1         -0.4496   -4.6404   -1.4835 H1        1 <0>        0.00000
     23 H2          0.2749   -5.7319   -0.3136 H1        1 <0>        0.00000
     24 H3         -3.0807   -5.4218    1.3391 H1        1 <0>        0.00000
     25 H4         -1.9929   -6.3024    0.2531 H1        1 <0>        0.00000
     26 H5         -4.1170   -5.6946   -0.8961 H1        1 <0>        0.00000
     27 H6         -2.7387   -4.9210   -1.6901 H1        1 <0>        0.00000
     28 H7         -3.8011   -3.1789    0.2593 H         1 <0>        0.00000
     29 H8          0.8315   -2.2213   -1.9417 H4        1 <0>        0.00000
     30 H9          4.8954   -4.5492    1.0783 H1        1 <0>        0.00000
     31 H10         5.4578   -3.0881    0.2656 H1        1 <0>        0.00000
     32 H11        -4.7503   -4.5702   -3.0460 H4        1 <0>        0.00000
     33 H12         5.9598   -1.9842    3.5101 H1        1 <0>        0.00000
     34 H13         6.4851   -1.8939    1.8143 H1        1 <0>        0.00000
     35 H14         6.5353   -3.4458    2.6781 H1        1 <0>        0.00000
     36 H15         3.9587   -3.0053    4.0864 H1        1 <0>        0.00000
     37 H16         4.4311   -4.5196    3.2842 H1        1 <0>        0.00000
     38 H17         2.9062   -3.7201    2.8452 H1        1 <0>        0.00000
     39 H18        -5.9763   -1.3218   -1.8225 H         1 <0>        0.00000
     40 H19        -5.6825   -0.1102    0.0559 H1        1 <0>        0.00000
     41 H20        -4.0664   -0.8395    0.1829 H1        1 <0>        0.00000
     42 H21        -5.4657   -1.6468    0.9228 H1        1 <0>        0.00000
@<TRIPOS>BOND
     1    1    2 1
     2    2    3 1
     3    3    4 1
     4    4    5 1
     5    5    6 1
     6    1    7 1
     7    7    8 1
     8    8    9 2
     9    9   10 1
    10   10   11 1
    11    7   11 2
    12    9   12 1
    13    6   13 2
    14   12   14 1
    15   14   15 1
    16   14   16 1
    17   13   17 1
    18   17   18 2
    19   17   19 1
    20    6   20 1
    21   20   21 1
    22    1   22 1
    23    1   23 1
    24    3   24 1
    25    3   25 1
    26    4   26 1
    27    4   27 1
    28    5   28 1
    29   11   29 1
    30   12   30 1
    31   12   31 1
    32   13   32 1
    33   15   33 1
    34   15   34 1
    35   15   35 1
    36   16   36 1
    37   16   37 1
    38   16   38 1
    39   20   39 1
    40   21   40 1
    41   21   41 1
    42   21   42 1
@<TRIPOS>SUBSTRUCTURE
     1 <0>         1 GROUP 0 A     ****
@<TRIPOS>MOLECULE
MiniDrugBank_228
   58    62     1     0     0
SMALL
NO_CHARGES

@<TRIPOS>ATOM
      1 Cl1        15.3858    6.4015    2.1798 CL        1 <0>        0.00000
      2 C1         13.8423    6.2852    1.4231 CA        1 <0>        0.00000
      3 C2         13.6252    6.9130    0.1982 CA        1 <0>        0.00000
      4 C3         12.3846    6.8360   -0.4414 CA        1 <0>        0.00000
      5 C4         11.3731    6.1069    0.1939 CB        1 <0>        0.00000
      6 N1         10.0746    5.8642   -0.1937 NA        1 <0>        0.00000
      7 C5         12.8211    5.5592    2.0469 CA        1 <0>        0.00000
      8 C6         11.5619    5.4677    1.4211 CB        1 <0>        0.00000
      9 C7         10.3325    4.8338    1.7553 CC        1 <0>        0.00000
     10 C8          9.4377    5.0959    0.7436 CW        1 <0>        0.00000
     11 C9          8.0232    4.6568    0.6270 C         1 <0>        0.00000
     12 O1          7.3704    4.9910   -0.3582 O         1 <0>        0.00000
     13 N2          7.5500    3.8634    1.6600 N         1 <0>        0.00000
     14 C10         6.1616    3.3209    1.6790 CT        1 <0>        0.00000
     15 C11         5.6821    3.2340    3.1323 CT        1 <0>        0.00000
     16 C12         6.3685    2.1181    3.9174 CT        1 <0>        0.00000
     17 C13         6.2440    0.7731    3.2115 CT        1 <0>        0.00000
     18 C14         6.7718    0.8352    1.7795 CT        1 <0>        0.00000
     19 C15         6.1464    1.9668    0.9572 CT        1 <0>        0.00000
     20 N3          4.7422    1.6121    0.6130 N         1 <0>        0.00000
     21 C16         4.1502    2.0057   -0.5744 C         1 <0>        0.00000
     22 O2          4.6990    2.6704   -1.4493 O         1 <0>        0.00000
     23 C17         2.7344    1.5941   -0.7564 CR        1 <0>        0.00000
     24 S1          1.8822    2.0223   -2.1906 S         1 <0>        0.00000
     25 C18         0.5149    1.2259   -1.5724 CW        1 <0>        0.00000
     26 C19        -0.7951    1.0904   -2.2746 CT        1 <0>        0.00000
     27 N4         -1.8565    0.6995   -1.3148 N3        1 <0>        0.00000
     28 C20        -3.0915    0.3786   -2.0291 CT        1 <0>        0.00000
     29 C21        -1.4343   -0.4347   -0.4622 CT        1 <0>        0.00000
     30 C22        -0.2381   -0.0542    0.4404 CT        1 <0>        0.00000
     31 C23         0.7932    0.6852   -0.3351 CC        1 <0>        0.00000
     32 N5          2.0669    0.8992    0.1417 NB        1 <0>        0.00000
     33 H1          5.5757    4.0529    1.1441 H1        1 <0>        0.00000
     34 H2          6.6497    2.0327   -0.0001 H1        1 <0>        0.00000
     35 H3         14.4233    7.4761   -0.2810 HA        1 <0>        0.00000
     36 H4         12.2167    7.3258   -1.3948 HA        1 <0>        0.00000
     37 H5          9.6554    6.2058   -1.0478 H         1 <0>        0.00000
     38 H6         12.9888    5.0694    3.0026 HA        1 <0>        0.00000
     39 H7         10.1286    4.2491    2.6425 HA        1 <0>        0.00000
     40 H8          8.1681    3.5758    2.4116 H         1 <0>        0.00000
     41 H9          5.8391    4.1896    3.6471 HC        1 <0>        0.00000
     42 H10         4.6001    3.0501    3.1385 HC        1 <0>        0.00000
     43 H11         7.4288    2.3622    4.0561 HC        1 <0>        0.00000
     44 H12         5.9268    2.0494    4.9181 HC        1 <0>        0.00000
     45 H13         6.7989    0.0124    3.7724 HC        1 <0>        0.00000
     46 H14         5.1939    0.4574    3.2074 HC        1 <0>        0.00000
     47 H15         7.8587    0.9840    1.8164 HC        1 <0>        0.00000
     48 H16         6.6043   -0.1315    1.2890 HC        1 <0>        0.00000
     49 H17         4.2012    1.0634    1.2708 H         1 <0>        0.00000
     50 H18        -1.0678    2.0441   -2.7419 H1        1 <0>        0.00000
     51 H19        -0.6935    0.3379   -3.0675 H1        1 <0>        0.00000
     52 H20        -3.8507    0.0964   -1.3076 H1        1 <0>        0.00000
     53 H21        -2.9017   -0.4447   -2.7098 H1        1 <0>        0.00000
     54 H22        -3.4144    1.2521   -2.5857 H1        1 <0>        0.00000
     55 H23        -2.2599   -0.7495    0.1881 H1        1 <0>        0.00000
     56 H24        -1.1668   -1.2976   -1.0874 H1        1 <0>        0.00000
     57 H25        -0.5859    0.5856    1.2605 HC        1 <0>        0.00000
     58 H26         0.1932   -0.9588    0.8825 HC        1 <0>        0.00000
@<TRIPOS>BOND
     1    1    2 1
     2    2    7 ar
     3    2    3 ar
     4    3    4 ar
     5    4    5 ar
     6    5    8 ar
     7    5    6 1
     8    6   10 1
     9    7    8 ar
    10    8    9 1
    11    9   10 2
    12   10   11 1
    13   11   12 2
    14   11   13 am
    15   13   14 1
    16   14   19 1
    17   14   15 1
    18   14   33 1
    19   15   16 1
    20   16   17 1
    21   17   18 1
    22   18   19 1
    23   19   20 1
    24   19   34 1
    25   20   21 am
    26   21   23 1
    27   21   22 2
    28   23   32 2
    29   23   24 1
    30   24   25 1
    31   25   26 1
    32   25   31 2
    33   26   27 1
    34   27   28 1
    35   27   29 1
    36   29   30 1
    37   30   31 1
    38   31   32 1
    39    3   35 1
    40    4   36 1
    41    6   37 1
    42    7   38 1
    43    9   39 1
    44   13   40 1
    45   15   41 1
    46   15   42 1
    47   16   43 1
    48   16   44 1
    49   17   45 1
    50   17   46 1
    51   18   47 1
    52   18   48 1
    53   20   49 1
    54   26   50 1
    55   26   51 1
    56   28   52 1
    57   28   53 1
    58   28   54 1
    59   29   55 1
    60   29   56 1
    61   30   57 1
    62   30   58 1
@<TRIPOS>SUBSTRUCTURE
     1 <0>         1 GROUP 0 A     ****
@<TRIPOS>MOLECULE
MiniDrugBank_229
   12    11     1     0     0
SMALL
NO_CHARGES

@<TRIPOS>ATOM
      1 N1         -0.6453   -1.5544    0.1790 N3        1 <0>        0.00000
      2 C1         -0.3373   -0.1629   -0.1473 CT        1 <0>        0.00000
      3 C2          1.0474   -0.0437   -0.6225 C2        1 <0>        0.00000
      4 C3          2.1777    0.0570   -1.0153 C2        1 <0>        0.00000
      5 C4         -0.5444    0.6690    1.1032 C         1 <0>        0.00000
      6 O1         -1.8250    0.5934    1.5573 OH        1 <0>        0.00000
      7 O2          0.3132    1.3400    1.6630 O         1 <0>        0.00000
      8 H1         -0.3836   -1.9177    1.0821 H         1 <0>        0.00000
      9 H2         -0.9238   -2.1827   -0.5585 H         1 <0>        0.00000
     10 H3         -1.0471    0.1755   -0.9101 H1        1 <0>        0.00000
     11 H4          3.1802    0.1462   -1.3632 HC        1 <0>        0.00000
     12 H5         -2.4232    0.0247    1.0267 HO        1 <0>        0.00000
@<TRIPOS>BOND
     1    1    2 1
     2    2    3 1
     3    3    4 3
     4    2    5 1
     5    5    6 1
     6    5    7 2
     7    1    8 1
     8    1    9 1
     9    2   10 1
    10    4   11 1
    11    6   12 1
@<TRIPOS>SUBSTRUCTURE
     1 <0>         1 GROUP 0 A     ****
@<TRIPOS>MOLECULE
MiniDrugBank_230
   76    80     1     0     0
SMALL
NO_CHARGES

@<TRIPOS>ATOM
      1 C1         -9.0788   -1.1969    0.0000 CA        1 <0>        0.00000
      2 C2         -9.3338   -1.9816    0.0000 CA        1 <0>        0.00000
      3 C3         -8.2719   -1.0254    0.0000 CA        1 <0>        0.00000
      4 C4         -7.9748   -2.4231    0.0000 CA        1 <0>        0.00000
      5 C5         -4.8316   -1.9421    0.0000 CT        1 <0>        0.00000
      6 C6         -0.5683   -1.4940    0.0000 CT        1 <0>        0.00000
      7 C7          3.3523    1.1104    0.0000 CA        1 <0>        0.00000
      8 C8          0.6538    1.5229    0.0000 CR        1 <0>        0.00000
      9 C9         -8.7817   -2.5947    0.0000 CA        1 <0>        0.00000
     10 C10        -5.5853   -1.6065    0.0000 CT        1 <0>        0.00000
     11 C11         0.0992   -1.0091    0.0000 CT        1 <0>        0.00000
     12 C12         1.9233    1.9354    0.0000 CB        1 <0>        0.00000
     13 C13        -5.7568   -0.7995    0.0000 CT        1 <0>        0.00000
     14 C14         0.8838   -1.2640    0.0000 CT        1 <0>        0.00000
     15 C15        -6.5773   -0.7133    0.0000 CT        1 <0>        0.00000
     16 C16         1.3687   -0.5966    0.0000 CT        1 <0>        0.00000
     17 C17         2.6378    2.3479    0.0000 CA        1 <0>        0.00000
     18 C18        -9.0367   -3.3793    0.0000 C         1 <0>        0.00000
     19 C19         1.9233    1.1104    0.0000 CB        1 <0>        0.00000
     20 C20        -6.9129   -1.4670    0.0000 CT        1 <0>        0.00000
     21 C21         0.8838    0.0709    0.0000 CT        1 <0>        0.00000
     22 N1          2.6378    3.1729    0.0000 N2        1 <0>        0.00000
     23 N2         -9.8437   -3.5508    0.0000 NB        1 <0>        0.00000
     24 N3          3.3523    1.9354    0.0000 NC        1 <0>        0.00000
     25 N4          2.6378    0.6979    0.0000 NC        1 <0>        0.00000
     26 N5          1.1387    2.1904    0.0000 NB        1 <0>        0.00000
     27 N6         -7.7198   -1.6385    0.0000 NC        1 <0>        0.00000
     28 N7          1.1387    0.8555    0.0000 N*        1 <0>        0.00000
     29 O1         -5.2048   -0.1865    0.0000 OH        1 <0>        0.00000
     30 O2          1.1387   -2.0486    0.0000 OH        1 <0>        0.00000
     31 O3         -6.9898    0.0012    0.0000 OH        1 <0>        0.00000
     32 O4          1.8917   -1.7235    0.0000 O         1 <0>        0.00000
     33 O5          3.3207   -0.8985    0.0000 OH        1 <0>        0.00000
     34 O6          3.0187   -2.0255    0.0000 OH        1 <0>        0.00000
     35 O7         -3.0749   -1.0390    0.0000 O         1 <0>        0.00000
     36 O8         -3.7461   -2.5464    0.0000 OH        1 <0>        0.00000
     37 O9         -2.4743   -0.9759    0.0000 O         1 <0>        0.00000
     38 O10        -1.5045   -2.3108    0.0000 OH        1 <0>        0.00000
     39 O11        -4.1642   -1.4572    0.0000 OS        1 <0>        0.00000
     40 O12        -1.3220   -1.1584    0.0000 OS        1 <0>        0.00000
     41 O13        -6.2998   -2.0190    0.0000 OS        1 <0>        0.00000
     42 O14         0.0992   -0.1841    0.0000 OS        1 <0>        0.00000
     43 O15         2.1937   -0.5966    0.0000 OS        1 <0>        0.00000
     44 O16        -2.6568   -2.1283    0.0000 OS        1 <0>        0.00000
     45 P1          2.6062   -1.3110    0.0000 P         1 <0>        0.00000
     46 P2         -3.4105   -1.7927    0.0000 P         1 <0>        0.00000
     47 P3         -1.9894   -1.6433    0.0000 P         1 <0>        0.00000
     48 S1         -8.4846   -3.9924    0.0000 Su        1 <0>        0.00000
     49 H1         -5.1604   -0.8994    0.0000 H1        1 <0>        0.00000
     50 H2          0.4991   -1.7306    0.0000 H1        1 <0>        0.00000
     51 H3         -4.9350   -0.7276    0.0000 H1        1 <0>        0.00000
     52 H4          0.5351   -2.0117    0.0000 H1        1 <0>        0.00000
     53 H5         -6.1280   -0.0214    0.0000 H1        1 <0>        0.00000
     54 H6          1.7432   -1.3316    0.0000 H1        1 <0>        0.00000
     55 H7         -7.4321   -0.8258    0.0000 HP        1 <0>        0.00000
     56 H8          1.6986    0.1999    0.0000 H2        1 <0>        0.00000
     57 H9         -9.8014   -0.3943    0.0000 HA        1 <0>        0.00000
     58 H10       -10.3902   -2.2062    0.0000 HA        1 <0>        0.00000
     59 H11        -7.9382    0.0017    0.0000 H4        1 <0>        0.00000
     60 H12        -7.2521   -3.2257    0.0000 H4        1 <0>        0.00000
     61 H13        -4.7652   -2.5737    0.8981 H1        1 <0>        0.00000
     62 H14        -4.7652   -2.5737   -0.8981 H1        1 <0>        0.00000
     63 H15        -0.5019   -2.1256   -0.8981 H1        1 <0>        0.00000
     64 H16        -0.5019   -2.1256    0.8981 H1        1 <0>        0.00000
     65 H17         4.2876    0.5704    0.0000 H5        1 <0>        0.00000
     66 H18        -0.4262    1.5229    0.0000 H5        1 <0>        0.00000
     67 H19         3.5804    3.5067    0.0000 H         1 <0>        0.00000
     68 H20         2.1663    3.5061   -0.8165 H         1 <0>        0.00000
     69 H21       -10.0174   -4.5356    0.0000 H         1 <0>        0.00000
     70 H22        -4.3271   -0.5501    0.0000 HO        1 <0>        0.00000
     71 H23         2.0884   -2.0735    0.0000 HO        1 <0>        0.00000
     72 H24        -7.9239   -0.1719    0.0000 HO        1 <0>        0.00000
     73 H25         4.0431   -1.5155    0.0000 HO        1 <0>        0.00000
     74 H26         2.4017   -2.7479    0.0000 HO        1 <0>        0.00000
     75 H27        -3.0570   -3.2004    0.0000 HO        1 <0>        0.00000
     76 H28        -2.0426   -3.0937    0.0000 HO        1 <0>        0.00000
@<TRIPOS>BOND
     1    1    2 ar
     2    1    3 ar
     3    2    9 ar
     4    4    9 ar
     5    5   10 1
     6    6   11 1
     7   10   13 1
     8   11   14 1
     9   13   15 1
    10   14   16 1
    11   12   17 ar
    12    9   18 1
    13   12   19 ar
    14   15   20 1
    15   16   21 1
    16   17   22 1
    17   18   23 2
    18    7   24 ar
    19   17   24 ar
    20    7   25 ar
    21   19   25 ar
    22    8   26 2
    23   12   26 1
    24    3   27 ar
    25    4   27 ar
    26   20   27 1
    27    8   28 1
    28   19   28 1
    29   21   28 1
    30   13   29 1
    31   14   30 1
    32   15   31 1
    33    5   39 1
    34    6   40 1
    35   10   41 1
    36   20   41 1
    37   11   42 1
    38   21   42 1
    39   16   43 1
    40   32   45 2
    41   33   45 1
    42   34   45 1
    43   43   45 1
    44   35   46 2
    45   36   46 1
    46   39   46 1
    47   44   46 1
    48   37   47 2
    49   38   47 1
    50   40   47 1
    51   44   47 1
    52   18   48 1
    53   10   49 1
    54   11   50 1
    55   13   51 1
    56   14   52 1
    57   15   53 1
    58   16   54 1
    59   20   55 1
    60   21   56 1
    61    1   57 1
    62    2   58 1
    63    3   59 1
    64    4   60 1
    65    5   61 1
    66    5   62 1
    67    6   63 1
    68    6   64 1
    69    7   65 1
    70    8   66 1
    71   22   67 1
    72   22   68 1
    73   23   69 1
    74   29   70 1
    75   30   71 1
    76   31   72 1
    77   33   73 1
    78   34   74 1
    79   36   75 1
    80   38   76 1
@<TRIPOS>SUBSTRUCTURE
     1 <0>         1 GROUP 0 A     ****
@<TRIPOS>MOLECULE
MiniDrugBank_231
   47    49     1     0     0
SMALL
NO_CHARGES

@<TRIPOS>ATOM
      1 C1         -6.5186    2.9158   -5.0083 CA        1 <0>        0.00000
      2 C2         -6.8647    1.6703   -4.2869 C         1 <0>        0.00000
      3 O1         -8.0358    1.4559   -3.9897 O         1 <0>        0.00000
      4 C3         -5.8495    0.6952   -3.9215 CA        1 <0>        0.00000
      5 C4         -5.0800    0.0855   -4.9123 CA        1 <0>        0.00000
      6 C5         -4.1064   -0.8500   -4.5622 CA        1 <0>        0.00000
      7 C6         -3.9023   -1.1758   -3.2213 CA        1 <0>        0.00000
      8 C7         -2.3250   -1.9325   -1.6103 CT        1 <0>        0.00000
      9 C8         -0.9303   -2.4622   -1.6866 CM        1 <0>        0.00000
     10 C9          0.1625   -1.7193   -1.4565 CM        1 <0>        0.00000
     11 C10         1.5558   -2.2520   -1.5294 CT        1 <0>        0.00000
     12 N1          2.2833   -1.5241   -2.5301 N3        1 <0>        0.00000
     13 C11         3.7372   -1.6520   -2.3382 CT        1 <0>        0.00000
     14 C12         1.9280   -1.9721   -3.8867 CJ        1 <0>        0.00000
     15 C13         2.2002   -1.0911   -5.0712 CJ        1 <0>        0.00000
     16 C14        -4.6718   -0.5660   -2.2306 CA        1 <0>        0.00000
     17 C15        -5.6454    0.3695   -2.5806 CA        1 <0>        0.00000
     18 C16        -7.4448    3.5026   -5.8705 CA        1 <0>        0.00000
     19 C17        -7.1183    4.6755   -6.5513 CA        1 <0>        0.00000
     20 C18        -5.8655    5.2616   -6.3697 CA        1 <0>        0.00000
     21 O2         -2.9452   -2.0953   -2.8782 OS        1 <0>        0.00000
     22 C19         0.7880   -1.3271   -4.6198 CJ        1 <0>        0.00000
     23 Br1        -5.4249    6.8520   -7.2907 BR        1 <0>        0.00000
     24 C20        -4.9394    4.6748   -5.5075 CA        1 <0>        0.00000
     25 C21        -5.2659    3.5019   -4.8268 CA        1 <0>        0.00000
     26 H1         -5.2314    0.3315   -5.9603 HA        1 <0>        0.00000
     27 H2         -3.5095   -1.3214   -5.3385 HA        1 <0>        0.00000
     28 H3         -2.9258   -2.4543   -0.8587 H1        1 <0>        0.00000
     29 H4         -2.3033   -0.8659   -1.3664 H1        1 <0>        0.00000
     30 H5         -0.8177   -3.5097   -1.9549 HA        1 <0>        0.00000
     31 H6          0.0475   -0.6723   -1.1858 HA        1 <0>        0.00000
     32 H7          2.0675   -2.1153   -0.5723 H1        1 <0>        0.00000
     33 H8          1.5898   -3.3127   -1.7961 H1        1 <0>        0.00000
     34 H9          4.2346   -1.0874   -3.1151 H1        1 <0>        0.00000
     35 H10         4.0011   -2.6992   -2.4029 H1        1 <0>        0.00000
     36 H11         3.9905   -1.2586   -1.3628 H1        1 <0>        0.00000
     37 H12         2.0612   -3.0371   -4.0306 H1        1 <0>        0.00000
     38 H13         2.6334   -0.1165   -4.8823 HC        1 <0>        0.00000
     39 H14         2.5127   -1.5469   -6.0029 HC        1 <0>        0.00000
     40 H15        -4.5183   -0.8163   -1.1845 HA        1 <0>        0.00000
     41 H16        -6.2386    0.8387   -1.8001 HA        1 <0>        0.00000
     42 H17        -8.4233    3.0536   -6.0206 HA        1 <0>        0.00000
     43 H18        -7.8514    5.1199   -7.2196 HA        1 <0>        0.00000
     44 H19         0.1550   -1.9407   -5.2493 HC        1 <0>        0.00000
     45 H20         0.2729   -0.5111   -4.1276 HC        1 <0>        0.00000
     46 H21        -3.9590    5.1187   -5.3553 HA        1 <0>        0.00000
     47 H22        -4.5361    3.0522   -4.1583 HA        1 <0>        0.00000
@<TRIPOS>BOND
     1    1    2 1
     2    1   18 ar
     3    1   25 ar
     4    2    3 2
     5    2    4 1
     6    4    5 ar
     7    4   17 ar
     8    5    6 ar
     9    6    7 ar
    10    7   16 ar
    11    7   21 1
    12    8    9 1
    13    8   21 1
    14    9   10 2
    15   10   11 1
    16   11   12 1
    17   12   13 1
    18   12   14 1
    19   14   15 1
    20   14   22 1
    21   15   22 1
    22   16   17 ar
    23   18   19 ar
    24   19   20 ar
    25   20   23 1
    26   20   24 ar
    27   24   25 ar
    28    5   26 1
    29    6   27 1
    30    8   28 1
    31    8   29 1
    32    9   30 1
    33   10   31 1
    34   11   32 1
    35   11   33 1
    36   13   34 1
    37   13   35 1
    38   13   36 1
    39   14   37 1
    40   15   38 1
    41   15   39 1
    42   16   40 1
    43   17   41 1
    44   18   42 1
    45   19   43 1
    46   22   44 1
    47   22   45 1
    48   24   46 1
    49   25   47 1
@<TRIPOS>SUBSTRUCTURE
     1 <0>         1 GROUP 0 A     ****
@<TRIPOS>MOLECULE
MiniDrugBank_232
   15    14     1     0     0
SMALL
NO_CHARGES

@<TRIPOS>ATOM
      1 N1          1.2931   -1.4685    0.3059 N3        1 <0>        0.00000
      2 C1          0.3334   -0.4774   -0.1914 CT        1 <0>        0.00000
      3 C2          0.3974    0.7545    0.7045 CT        1 <0>        0.00000
      4 S1         -0.3078    2.2001   -0.1961 SO        1 <0>        0.00000
      5 O1         -0.1462    3.2747    0.8498 O2        1 <0>        0.00000
      6 O2          0.6480    2.2854   -1.3599 O2        1 <0>        0.00000
      7 C3         -1.0386   -1.1333   -0.1417 C         1 <0>        0.00000
      8 O3         -1.8744   -0.6643   -1.1040 OH        1 <0>        0.00000
      9 O4         -1.3814   -1.9766    0.6780 O         1 <0>        0.00000
     10 H1          1.0237   -2.0783    1.0620 H         1 <0>        0.00000
     11 H2          2.2612   -1.3954    0.0344 H         1 <0>        0.00000
     12 H3          0.6090   -0.2519   -1.2274 H1        1 <0>        0.00000
     13 H4          1.4281    1.0259    0.9545 H1        1 <0>        0.00000
     14 H5         -0.1788    0.6363    1.6277 H1        1 <0>        0.00000
     15 H6         -1.4918    0.0094   -1.7053 HO        1 <0>        0.00000
@<TRIPOS>BOND
     1    1    2 1
     2    2    3 1
     3    3    4 1
     4    4    5 2
     5    4    6 2
     6    2    7 1
     7    7    8 1
     8    7    9 2
     9    1   10 1
    10    1   11 1
    11    2   12 1
    12    3   13 1
    13    3   14 1
    14    8   15 1
@<TRIPOS>SUBSTRUCTURE
     1 <0>         1 GROUP 0 A     ****
@<TRIPOS>MOLECULE
MiniDrugBank_233
   53    56     1     0     0
SMALL
NO_CHARGES

@<TRIPOS>ATOM
      1 O1         -0.0491   -6.4134    0.7918 OH        1 <0>        0.00000
      2 O2         -1.0296    4.4862    4.1449 OH        1 <0>        0.00000
      3 N1          0.1146    3.8220    4.5930 NB        1 <0>        0.00000
      4 C1          0.3551   -4.0949    1.5249 CT        1 <0>        0.00000
      5 C2          1.3137   -3.5391    2.6017 CT        1 <0>        0.00000
      6 C3          1.5937   -2.0428    2.4327 CT        1 <0>        0.00000
      7 C4          0.2505   -1.2611    2.5268 CT        1 <0>        0.00000
      8 C5          0.3694   -5.6107    1.8878 CT        1 <0>        0.00000
      9 C6         -0.9888   -3.3551    1.6550 CT        1 <0>        0.00000
     10 C7          2.4901   -4.5117    2.5693 CT        1 <0>        0.00000
     11 C8         -0.8180   -1.8279    1.5577 CT        1 <0>        0.00000
     12 C9          0.4775    0.2700    2.3339 CT        1 <0>        0.00000
     13 C10         1.8629   -5.8755    2.2136 CT        1 <0>        0.00000
     14 C11         2.5751   -1.5218    3.4905 CT        1 <0>        0.00000
     15 C12         0.8766   -3.9078    0.0691 CT        1 <0>        0.00000
     16 C13         2.8501   -0.0362    3.2863 CT        1 <0>        0.00000
     17 C14         1.5827    0.7812    3.2509 CM        1 <0>        0.00000
     18 C15        -0.8438    1.0419    2.5377 CT        1 <0>        0.00000
     19 C16        -0.0915   -4.4629   -0.9069 CT        1 <0>        0.00000
     20 C17        -0.4713   -5.9451    3.0543 C2        1 <0>        0.00000
     21 C18        -0.6248    2.5374    2.6840 CT        1 <0>        0.00000
     22 C19         1.4952    1.9086    3.9755 CM        1 <0>        0.00000
     23 C20         0.3231    2.8022    3.8254 C         1 <0>        0.00000
     24 C21        -1.1470   -6.2134    3.9920 C2        1 <0>        0.00000
     25 H1          0.8428   -3.6568    3.5910 HC        1 <0>        0.00000
     26 H2          2.0462   -1.8623    1.4499 HC        1 <0>        0.00000
     27 H3         -0.1422   -1.4114    3.5447 HC        1 <0>        0.00000
     28 H4          0.8151    0.4424    1.3020 HC        1 <0>        0.00000
     29 H5         -0.0160   -7.3394    1.0870 HO        1 <0>        0.00000
     30 H6         -1.0915    5.2198    4.7799 HO        1 <0>        0.00000
     31 H7         -1.6924   -3.6967    0.8862 HC        1 <0>        0.00000
     32 H8         -1.4592   -3.5716    2.6218 HC        1 <0>        0.00000
     33 H9          3.2276   -4.2247    1.8113 HC        1 <0>        0.00000
     34 H10         3.0078   -4.5544    3.5332 HC        1 <0>        0.00000
     35 H11        -1.7931   -1.3762    1.7735 HC        1 <0>        0.00000
     36 H12        -0.5724   -1.5427    0.5284 HC        1 <0>        0.00000
     37 H13         1.9853   -6.5805    3.0448 HC        1 <0>        0.00000
     38 H14         2.3898   -6.3111    1.3560 HC        1 <0>        0.00000
     39 H15         2.1732   -1.6914    4.4976 HC        1 <0>        0.00000
     40 H16         3.5245   -2.0661    3.4295 HC        1 <0>        0.00000
     41 H17         1.0236   -2.8464   -0.0916 HC        1 <0>        0.00000
     42 H18         1.8324   -4.4130   -0.0031 HC        1 <0>        0.00000
     43 H19         3.5276    0.3098    4.0765 HC        1 <0>        0.00000
     44 H20         3.3801    0.1065    2.3358 HC        1 <0>        0.00000
     45 H21        -1.5157    0.8691    1.6895 HC        1 <0>        0.00000
     46 H22        -1.3564    0.6692    3.4350 HC        1 <0>        0.00000
     47 H23         0.3082   -4.3136   -1.9169 HC        1 <0>        0.00000
     48 H24        -1.0587   -3.9528   -0.8457 HC        1 <0>        0.00000
     49 H25        -0.2404   -5.5373   -0.7559 HC        1 <0>        0.00000
     50 H26        -0.1967    2.9651    1.7703 HC        1 <0>        0.00000
     51 H27        -1.5802    3.0381    2.8750 HC        1 <0>        0.00000
     52 H28         2.2926    2.2335    4.6346 HA        1 <0>        0.00000
     53 H29        -1.7534   -6.4544    4.8336 HC        1 <0>        0.00000
@<TRIPOS>BOND
     1    1    8 1
     2    2    3 1
     3    3   23 2
     4    4    5 1
     5    4    8 1
     6    4    9 1
     7    4   15 1
     8    5    6 1
     9    5   10 1
    10    5   25 1
    11    6    7 1
    12    6   14 1
    13    6   26 1
    14    7   11 1
    15    7   12 1
    16    7   27 1
    17    8   13 1
    18    8   20 1
    19    9   11 1
    20   10   13 1
    21   12   17 1
    22   12   18 1
    23   12   28 1
    24   14   16 1
    25   15   19 1
    26   16   17 1
    27   17   22 2
    28   18   21 1
    29   20   24 3
    30   21   23 1
    31   22   23 1
    32    1   29 1
    33    2   30 1
    34    9   31 1
    35    9   32 1
    36   10   33 1
    37   10   34 1
    38   11   35 1
    39   11   36 1
    40   13   37 1
    41   13   38 1
    42   14   39 1
    43   14   40 1
    44   15   41 1
    45   15   42 1
    46   16   43 1
    47   16   44 1
    48   18   45 1
    49   18   46 1
    50   19   47 1
    51   19   48 1
    52   19   49 1
    53   21   50 1
    54   21   51 1
    55   22   52 1
    56   24   53 1
@<TRIPOS>SUBSTRUCTURE
     1 <0>         1 GROUP 0 A     ****
@<TRIPOS>MOLECULE
MiniDrugBank_234
   41    45     1     0     0
SMALL
NO_CHARGES

@<TRIPOS>ATOM
      1 N1         -2.1140   -2.8087   -5.3227 NC        1 <0>        0.00000
      2 N2         -3.5130   -4.0719   -6.8241 NC        1 <0>        0.00000
      3 N3         -3.0723   -1.1071   -3.9602 N2        1 <0>        0.00000
      4 N4         -2.3118    0.1549   -2.1194 NA        1 <0>        0.00000
      5 N5         -1.3376    0.0057   -1.2057 NB        1 <0>        0.00000
      6 N6         -1.2115   -4.4928   -6.6806 N2        1 <0>        0.00000
      7 N7          4.1464   -4.1286   -5.2282 NA        1 <0>        0.00000
      8 N8          2.9229   -2.2759   -5.1279 NB        1 <0>        0.00000
      9 C1         -2.3342   -3.7549   -6.2552 CA        1 <0>        0.00000
     10 C2         -3.2101   -2.1227   -4.9377 CA        1 <0>        0.00000
     11 C3         -4.4739   -2.3508   -5.4429 CA        1 <0>        0.00000
     12 C4         -4.5662   -3.3474   -6.3929 CA        1 <0>        0.00000
     13 C5         -2.1853   -0.9368   -2.8783 CW        1 <0>        0.00000
     14 C6         -0.6059   -1.1347   -1.3614 CR        1 <0>        0.00000
     15 C7         -1.1386   -1.7764   -2.4526 CC        1 <0>        0.00000
     16 C8          0.5484   -1.5694   -0.4895 CJ        1 <0>        0.00000
     17 C9          1.7759   -0.6980   -0.3621 CJ        1 <0>        0.00000
     18 C10         1.8581   -1.9890   -1.1146 CJ        1 <0>        0.00000
     19 C11         0.1553   -4.4499   -6.3218 CA        1 <0>        0.00000
     20 C12         0.7161   -3.2373   -5.9075 CA        1 <0>        0.00000
     21 C13         2.0687   -3.2554   -5.5653 CB        1 <0>        0.00000
     22 C14         2.8560   -4.4021   -5.6199 CB        1 <0>        0.00000
     23 C15         2.2761   -5.6117   -6.0382 CA        1 <0>        0.00000
     24 C16         0.9196   -5.6172   -6.3867 CA        1 <0>        0.00000
     25 C17         4.1513   -2.8463   -4.9408 CR        1 <0>        0.00000
     26 H1         -3.7462   -0.3528   -4.0578 H         1 <0>        0.00000
     27 H2         -2.9326    0.9586   -2.1223 H         1 <0>        0.00000
     28 H3         -1.4269   -5.1935   -7.3844 H         1 <0>        0.00000
     29 H4          4.9105   -4.7908   -5.1810 H         1 <0>        0.00000
     30 H5         -5.3449   -1.7927   -5.1236 HA        1 <0>        0.00000
     31 H6         -5.5180   -3.5969   -6.8497 H4        1 <0>        0.00000
     32 H7         -0.8515   -2.7115   -2.9122 HA        1 <0>        0.00000
     33 H8          0.2619   -2.1215    0.4249 HC        1 <0>        0.00000
     34 H9          1.8158    0.2224   -0.9341 HC        1 <0>        0.00000
     35 H10         2.2718   -0.6432    0.6008 HC        1 <0>        0.00000
     36 H11         2.4089   -2.8052   -0.6601 HC        1 <0>        0.00000
     37 H12         1.9529   -1.9374   -2.1937 HC        1 <0>        0.00000
     38 H13         0.1304   -2.3259   -5.8539 HA        1 <0>        0.00000
     39 H14         2.8632   -6.5232   -6.0913 HA        1 <0>        0.00000
     40 H15         0.4662   -6.5509   -6.7126 HA        1 <0>        0.00000
     41 H16         5.0156   -2.2952   -4.5962 H5        1 <0>        0.00000
@<TRIPOS>BOND
     1    1    9 ar
     2    1   10 ar
     3    2   12 ar
     4    3   10 1
     5    4   13 1
     6    4    5 1
     7    6    9 1
     8    7   22 1
     9    8   21 1
    10    2    9 ar
    11   10   11 ar
    12   11   12 ar
    13    3   13 1
    14    5   14 2
    15   14   15 1
    16   13   15 2
    17   14   16 1
    18   16   17 1
    19   16   18 1
    20   17   18 1
    21    6   19 1
    22   19   20 ar
    23   20   21 ar
    24   21   22 ar
    25   22   23 ar
    26   23   24 ar
    27   19   24 ar
    28    7   25 1
    29    8   25 2
    30    3   26 1
    31    4   27 1
    32    6   28 1
    33    7   29 1
    34   11   30 1
    35   12   31 1
    36   15   32 1
    37   16   33 1
    38   17   34 1
    39   17   35 1
    40   18   36 1
    41   18   37 1
    42   20   38 1
    43   23   39 1
    44   24   40 1
    45   25   41 1
@<TRIPOS>SUBSTRUCTURE
     1 <0>         1 GROUP 0 A     ****
@<TRIPOS>MOLECULE
MiniDrugBank_235
   33    36     1     0     0
SMALL
NO_CHARGES

@<TRIPOS>ATOM
      1 O1          0.6085    1.3411   -0.9381 O2        1 <0>        0.00000
      2 S1         -0.2688    0.6009   -0.0491 SO        1 <0>        0.00000
      3 O2         -1.6673    0.4103   -0.3905 O2        1 <0>        0.00000
      4 N1         -0.1651    1.1826    1.4732 NB        1 <0>        0.00000
      5 C1         -0.4752    2.4171    1.6740 C*        1 <0>        0.00000
      6 N2         -0.4780    3.1465    2.8242 NA        1 <0>        0.00000
      7 N3         -0.8727    4.4381    2.6339 NB        1 <0>        0.00000
      8 N4         -1.1283    4.5753    1.3921 NB        1 <0>        0.00000
      9 N5         -0.8953    3.3705    0.7968 NA        1 <0>        0.00000
     10 C2          0.4425   -0.9887    0.0806 CA        1 <0>        0.00000
     11 C3         -0.3604   -2.0883    0.3842 CA        1 <0>        0.00000
     12 C4          1.8128   -1.1561   -0.1199 CA        1 <0>        0.00000
     13 C5          2.3856   -2.4243   -0.0172 CA        1 <0>        0.00000
     14 C6          1.5871   -3.5289    0.2864 CB        1 <0>        0.00000
     15 O3          2.2255   -4.7418    0.3700 OS        1 <0>        0.00000
     16 C7          1.4748   -5.8530    0.6656 CB        1 <0>        0.00000
     17 C8          2.1613   -7.0666    0.7403 CA        1 <0>        0.00000
     18 C9          1.4703   -8.2423    1.0360 CA        1 <0>        0.00000
     19 C10         0.0934   -8.2081    1.2576 CA        1 <0>        0.00000
     20 C11        -0.5979   -6.9987    1.1845 CA        1 <0>        0.00000
     21 C12         0.0984   -5.8240    0.8881 CB        1 <0>        0.00000
     22 C13        -0.6037   -4.5342    0.8045 C         1 <0>        0.00000
     23 C14         0.2177   -3.3563    0.4858 CB        1 <0>        0.00000
     24 O4         -1.8084   -4.4461    0.9909 O         1 <0>        0.00000
     25 H1         -0.2207    2.8005    3.7406 H         1 <0>        0.00000
     26 H2         -1.0318    3.2358   -0.1976 H         1 <0>        0.00000
     27 H3         -1.4274   -1.9500    0.5386 HA        1 <0>        0.00000
     28 H4          2.4448   -0.3041   -0.3567 HA        1 <0>        0.00000
     29 H5          3.4542   -2.5436   -0.1750 HA        1 <0>        0.00000
     30 H6          3.2339   -7.1040    0.5692 HA        1 <0>        0.00000
     31 H7          2.0054   -9.1858    1.0940 HA        1 <0>        0.00000
     32 H8         -0.4415   -9.1252    1.4871 HA        1 <0>        0.00000
     33 H9         -1.6699   -6.9916    1.3601 HA        1 <0>        0.00000
@<TRIPOS>BOND
     1    1    2 2
     2    2    3 2
     3    2    4 1
     4    2   10 1
     5    4    5 2
     6    5    6 1
     7    5    9 1
     8    6    7 1
     9    7    8 2
    10    8    9 1
    11   10   11 ar
    12   10   12 ar
    13   11   23 ar
    14   12   13 ar
    15   13   14 ar
    16   14   15 1
    17   14   23 ar
    18   15   16 1
    19   16   17 ar
    20   16   21 ar
    21   17   18 ar
    22   18   19 ar
    23   19   20 ar
    24   20   21 ar
    25   21   22 1
    26   22   23 1
    27   22   24 2
    28    6   25 1
    29    9   26 1
    30   11   27 1
    31   12   28 1
    32   13   29 1
    33   17   30 1
    34   18   31 1
    35   19   32 1
    36   20   33 1
@<TRIPOS>SUBSTRUCTURE
     1 <0>         1 GROUP 0 A     ****
@<TRIPOS>MOLECULE
MiniDrugBank_236
   28    29     1     0     0
SMALL
NO_CHARGES

@<TRIPOS>ATOM
      1 C1          3.0080   -1.5539   -0.0459 CA        1 <0>        0.00000
      2 C2          1.6571    0.9549   10.7880 CA        1 <0>        0.00000
      3 C3          3.5365   -2.6013    0.7085 CA        1 <0>        0.00000
      4 C4          2.3677   -0.4902    0.5900 CA        1 <0>        0.00000
      5 C5          1.9737    2.1315   10.1091 CA        1 <0>        0.00000
      6 C6          1.4812   -0.2336   10.0792 CA        1 <0>        0.00000
      7 C7          3.4245   -2.5852    2.0988 CA        1 <0>        0.00000
      8 C8          2.2557   -0.4741    1.9803 CA        1 <0>        0.00000
      9 C9          2.1143    2.1197    8.7214 CA        1 <0>        0.00000
     10 C10         1.6218   -0.2454    8.6915 CA        1 <0>        0.00000
     11 C11         2.7842   -1.5216    2.7347 CA        1 <0>        0.00000
     12 C12         1.9384    0.9313    8.0125 CA        1 <0>        0.00000
     13 C13         2.6674   -1.5049    4.1842 C         1 <0>        0.00000
     14 C14         2.0879    0.9188    6.5360 C         1 <0>        0.00000
     15 O1          2.5941   -2.5179    4.8919 O         1 <0>        0.00000
     16 O2          1.8384    1.8832    5.8294 O         1 <0>        0.00000
     17 O3          2.6586   -0.2236    4.6690 OS        1 <0>        0.00000
     18 O4          2.5396   -0.2942    6.1207 OS        1 <0>        0.00000
     19 H1          3.0952   -1.5665   -1.1283 HA        1 <0>        0.00000
     20 H2          1.5477    0.9641   11.8684 HA        1 <0>        0.00000
     21 H3          4.0348   -3.4295    0.2133 HA        1 <0>        0.00000
     22 H4          1.9565    0.3255    0.0026 HA        1 <0>        0.00000
     23 H5          2.1105    3.0568   10.6611 HA        1 <0>        0.00000
     24 H6          1.2350   -1.1498   10.6078 HA        1 <0>        0.00000
     25 H7          3.8400   -3.4066    2.6770 HA        1 <0>        0.00000
     26 H8          1.7546    0.3598    2.4650 HA        1 <0>        0.00000
     27 H9          2.3612    3.0423    8.2023 HA        1 <0>        0.00000
     28 H10         1.4823   -1.1772    8.1495 HA        1 <0>        0.00000
@<TRIPOS>BOND
     1    1    3 ar
     2    1    4 ar
     3    2    5 ar
     4    2    6 ar
     5    3    7 ar
     6    4    8 ar
     7    5    9 ar
     8    6   10 ar
     9    7   11 ar
    10    8   11 ar
    11    9   12 ar
    12   10   12 ar
    13   11   13 1
    14   12   14 1
    15   13   15 2
    16   14   16 2
    17   13   17 1
    18   14   18 1
    19   17   18 1
    20    1   19 1
    21    2   20 1
    22    3   21 1
    23    4   22 1
    24    5   23 1
    25    6   24 1
    26    7   25 1
    27    8   26 1
    28    9   27 1
    29   10   28 1
@<TRIPOS>SUBSTRUCTURE
     1 <0>         1 GROUP 0 A     ****
@<TRIPOS>MOLECULE
MiniDrugBank_237
   25    25     1     0     0
SMALL
NO_CHARGES

@<TRIPOS>ATOM
      1 N1          0.9013   -0.5170    1.8640 N3        1 <0>        0.00000
      2 C1         -0.2717   -0.2549    1.0309 CT        1 <0>        0.00000
      3 C2         -1.0265    0.9334    1.5255 CA        1 <0>        0.00000
      4 C3          1.3537   -1.8968    1.6904 CT        1 <0>        0.00000
      5 C4          1.9777    0.4185    1.5398 CT        1 <0>        0.00000
      6 C5         -2.0434    0.7717    2.4664 CA        1 <0>        0.00000
      7 C6         -0.7149    2.2060    1.0470 CA        1 <0>        0.00000
      8 C7         -2.7488    1.8826    2.9289 CA        1 <0>        0.00000
      9 C8         -1.4203    3.3170    1.5094 CA        1 <0>        0.00000
     10 C9         -2.4372    3.1553    2.4503 CA        1 <0>        0.00000
     11 C10         0.5260   -2.7948    2.4866 C2        1 <0>        0.00000
     12 C11        -0.1451   -3.5500    3.1353 C2        1 <0>        0.00000
     13 H1         -0.8791   -1.1572    1.0547 H1        1 <0>        0.00000
     14 H2          0.0943   -0.1151    0.0163 H1        1 <0>        0.00000
     15 H3          1.2943   -2.1407    0.6319 H1        1 <0>        0.00000
     16 H4          2.3961   -1.9533    1.9976 H1        1 <0>        0.00000
     17 H5          2.8326    0.2015    2.1712 H1        1 <0>        0.00000
     18 H6          1.6310    1.4309    1.7188 H1        1 <0>        0.00000
     19 H7          2.2468    0.2985    0.4958 H1        1 <0>        0.00000
     20 H8         -2.2936   -0.2159    2.8449 HA        1 <0>        0.00000
     21 H9          0.0762    2.3411    0.3142 HA        1 <0>        0.00000
     22 H10        -3.5401    1.7568    3.6619 HA        1 <0>        0.00000
     23 H11        -1.1778    4.3079    1.1366 HA        1 <0>        0.00000
     24 H12        -2.9867    4.0202    2.8105 HA        1 <0>        0.00000
     25 H13        -0.7408   -4.2196    3.7105 HC        1 <0>        0.00000
@<TRIPOS>BOND
     1    1    2 1
     2    1    4 1
     3    1    5 1
     4    2    3 1
     5    3    6 ar
     6    3    7 ar
     7    4   11 1
     8    6    8 ar
     9    7    9 ar
    10    8   10 ar
    11    9   10 ar
    12   11   12 3
    13    2   13 1
    14    2   14 1
    15    4   15 1
    16    4   16 1
    17    5   17 1
    18    5   18 1
    19    5   19 1
    20    6   20 1
    21    7   21 1
    22    8   22 1
    23    9   23 1
    24   10   24 1
    25   12   25 1
@<TRIPOS>SUBSTRUCTURE
     1 <0>         1 GROUP 0 A     ****
@<TRIPOS>MOLECULE
MiniDrugBank_238
    5     4     1     0     0
SMALL
NO_CHARGES

@<TRIPOS>ATOM
      1 S1          1.8389    1.9802   -1.0140 Su        1 <0>        0.00000
      2 S2         -0.0139    1.1143   -1.1960 S         1 <0>        0.00000
      3 S3         -0.6038    0.6980    0.7247 S         1 <0>        0.00000
      4 S4          0.0838   -1.1962    1.1123 S         1 <0>        0.00000
      5 S5         -1.4335   -2.4496    0.5285 Su        1 <0>        0.00000
@<TRIPOS>BOND
     1    1    2 1
     2    2    3 1
     3    3    4 1
     4    4    5 1
@<TRIPOS>SUBSTRUCTURE
     1 <0>         1 GROUP 0 A     ****
@<TRIPOS>MOLECULE
MiniDrugBank_239
   48    52     1     0     0
SMALL
NO_CHARGES

@<TRIPOS>ATOM
      1 C1          0.6380    0.2637   -0.4286 C*        1 <0>        0.00000
      2 C2         -0.4627    0.3861    0.5318 C*        1 <0>        0.00000
      3 C3         -0.3705    1.3636    1.6710 CT        1 <0>        0.00000
      4 C4          0.6376    2.4872    1.4422 CT        1 <0>        0.00000
      5 C5          1.9696    1.9183    0.9704 CT        1 <0>        0.00000
      6 C6          1.8055    1.2105   -0.3727 CT        1 <0>        0.00000
      7 C7          0.4835   -0.7250   -1.3337 C*        1 <0>        0.00000
      8 P1         -1.1749   -1.5366   -1.1647 P         1 <0>        0.00000
      9 C8         -1.4800   -0.4786    0.3341 C*        1 <0>        0.00000
     10 N1         -3.8590   -0.4446    0.5272 NC        1 <0>        0.00000
     11 C9         -4.9725   -0.6087    1.2760 CA        1 <0>        0.00000
     12 C10        -4.9617   -0.9750    2.6122 CA        1 <0>        0.00000
     13 C11        -3.7287   -1.1864    3.2191 CA        1 <0>        0.00000
     14 C12        -2.5607   -1.0274    2.4817 CA        1 <0>        0.00000
     15 C13        -2.6790   -0.6589    1.1512 CA        1 <0>        0.00000
     16 C14        -0.1291   -5.5782    0.7996 CA        1 <0>        0.00000
     17 C15         0.6592   -4.4555    1.0518 CA        1 <0>        0.00000
     18 C16         0.3430   -3.2336    0.4580 CA        1 <0>        0.00000
     19 C17        -0.7616   -3.1344   -0.3881 CA        1 <0>        0.00000
     20 C18        -1.5499   -4.2571   -0.6403 CA        1 <0>        0.00000
     21 C19        -1.2337   -5.4790   -0.0465 CA        1 <0>        0.00000
     22 N2          1.8775   -2.3580   -2.3733 NC        1 <0>        0.00000
     23 C20         1.3945   -1.0959   -2.4129 CA        1 <0>        0.00000
     24 C21         1.7143   -0.1735   -3.3961 CA        1 <0>        0.00000
     25 C22         2.5858   -0.5720   -4.4036 CA        1 <0>        0.00000
     26 C23         3.1036   -1.8624   -4.3972 CA        1 <0>        0.00000
     27 C24         2.7217   -2.7092   -3.3691 CA        1 <0>        0.00000
     28 H1         -1.3493    1.8101    1.8790 HC        1 <0>        0.00000
     29 H2         -0.0728    0.8096    2.5704 HC        1 <0>        0.00000
     30 H3          0.2490    3.1941    0.6994 HC        1 <0>        0.00000
     31 H4          0.7804    3.0456    2.3736 HC        1 <0>        0.00000
     32 H5          2.7052    2.7255    0.8707 HC        1 <0>        0.00000
     33 H6          2.3633    1.2180    1.7186 HC        1 <0>        0.00000
     34 H7          2.7399    0.6853   -0.6071 HC        1 <0>        0.00000
     35 H8          1.6642    1.9727   -1.1513 HC        1 <0>        0.00000
     36 H9         -5.9083   -0.4333    0.7555 H4        1 <0>        0.00000
     37 H10        -5.8847   -1.0938    3.1678 HA        1 <0>        0.00000
     38 H11        -3.6787   -1.4735    4.2652 HA        1 <0>        0.00000
     39 H12        -1.5947   -1.1906    2.9487 HA        1 <0>        0.00000
     40 H13         0.1170   -6.5297    1.2618 HA        1 <0>        0.00000
     41 H14         1.5199   -4.5333    1.7097 HA        1 <0>        0.00000
     42 H15         0.9722   -2.3718    0.6678 HA        1 <0>        0.00000
     43 H16        -2.4161   -4.2025   -1.2955 HA        1 <0>        0.00000
     44 H17        -1.8480   -6.3532   -0.2417 HA        1 <0>        0.00000
     45 H18         1.3063    0.8321   -3.3947 HA        1 <0>        0.00000
     46 H19         2.8611    0.1217   -5.1923 HA        1 <0>        0.00000
     47 H20         3.7845   -2.1948   -5.1723 HA        1 <0>        0.00000
     48 H21         3.0976   -3.7258   -3.3184 H4        1 <0>        0.00000
@<TRIPOS>BOND
     1    1    2 1
     2    1    6 1
     3    1    7 2
     4    2    3 1
     5    2    9 2
     6    3    4 1
     7    4    5 1
     8    5    6 1
     9    7    8 1
    10    7   23 1
    11    8    9 1
    12    8   19 1
    13    9   15 1
    14   10   11 ar
    15   10   15 ar
    16   11   12 ar
    17   12   13 ar
    18   13   14 ar
    19   14   15 ar
    20   16   17 ar
    21   16   21 ar
    22   17   18 ar
    23   18   19 ar
    24   19   20 ar
    25   20   21 ar
    26   22   23 ar
    27   22   27 ar
    28   23   24 ar
    29   24   25 ar
    30   25   26 ar
    31   26   27 ar
    32    3   28 1
    33    3   29 1
    34    4   30 1
    35    4   31 1
    36    5   32 1
    37    5   33 1
    38    6   34 1
    39    6   35 1
    40   11   36 1
    41   12   37 1
    42   13   38 1
    43   14   39 1
    44   16   40 1
    45   17   41 1
    46   18   42 1
    47   20   43 1
    48   21   44 1
    49   24   45 1
    50   25   46 1
    51   26   47 1
    52   27   48 1
@<TRIPOS>SUBSTRUCTURE
     1 <0>         1 GROUP 0 A     ****
@<TRIPOS>MOLECULE
MiniDrugBank_240
   62    67     1     0     0
SMALL
NO_CHARGES

@<TRIPOS>ATOM
      1 O1          1.0787   -0.3753   -3.0763 OH        1 <0>        0.00000
      2 O2         -0.2216    0.2553   -3.2340 OS        1 <0>        0.00000
      3 C1         -0.8574    0.1192   -1.9735 CT        1 <0>        0.00000
      4 C2         -2.3584    0.2856   -2.1626 CT        1 <0>        0.00000
      5 C3         -2.9195   -0.7485   -3.1010 CA        1 <0>        0.00000
      6 C4         -2.9791   -0.4894   -4.4671 CA        1 <0>        0.00000
      7 C5         -3.4985   -1.4478   -5.3378 CA        1 <0>        0.00000
      8 C6         -3.9656   -2.6797   -4.8514 CB        1 <0>        0.00000
      9 C7         -4.4915   -3.6559   -5.7132 CA        1 <0>        0.00000
     10 C8         -4.9510   -4.8744   -5.2126 CA        1 <0>        0.00000
     11 C9         -4.8913   -5.1335   -3.8465 CA        1 <0>        0.00000
     12 C10        -4.3719   -4.1751   -2.9758 CA        1 <0>        0.00000
     13 C11        -3.9049   -2.9432   -3.4622 CB        1 <0>        0.00000
     14 C12        -3.3790   -1.9670   -2.6004 CA        1 <0>        0.00000
     15 N1         -0.6033   -1.1418   -1.2301 NB        1 <0>        0.00000
     16 C13        -0.0391   -0.7724   -0.1222 CR        1 <0>        0.00000
     17 C14         0.3755   -1.7430    0.9643 CT        1 <0>        0.00000
     18 C15        -0.8527   -2.4323    1.5462 CT        1 <0>        0.00000
     19 C16        -0.4960   -3.7277    2.2246 CA        1 <0>        0.00000
     20 C17        -0.4925   -4.9181    1.4976 CA        1 <0>        0.00000
     21 C18        -0.1617   -6.1184    2.1265 CA        1 <0>        0.00000
     22 C19         0.1657   -6.1283    3.4824 CA        1 <0>        0.00000
     23 C20         0.1623   -4.9379    4.2094 CA        1 <0>        0.00000
     24 C21        -0.1685   -3.7376    3.5805 CA        1 <0>        0.00000
     25 N2          1.0864   -1.0526    2.0311 N         1 <0>        0.00000
     26 C22         1.2353    0.3185    2.1055 CM        1 <0>        0.00000
     27 C23         0.7739    1.1155    1.1261 CM        1 <0>        0.00000
     28 N3          0.1632    0.5533    0.0385 N         1 <0>        0.00000
     29 C24        -0.3111    1.2084   -1.0638 C         1 <0>        0.00000
     30 O3         -0.2973    2.4031   -1.3171 O         1 <0>        0.00000
     31 C25         1.9065    0.8833    3.2913 CA        1 <0>        0.00000
     32 C26         1.3741    0.6674    4.5623 CA        1 <0>        0.00000
     33 C27         2.0078    1.2019    5.6840 CA        1 <0>        0.00000
     34 C28         3.1742    1.9523    5.5347 CA        1 <0>        0.00000
     35 O4          3.7928    2.4740    6.6293 OH        1 <0>        0.00000
     36 C29         3.7067    2.1682    4.2637 CA        1 <0>        0.00000
     37 C30         3.0729    1.6337    3.1420 CA        1 <0>        0.00000
     38 H1          0.7353   -1.2564   -2.8490 HO        1 <0>        0.00000
     39 H2         -2.5707    1.2897   -2.5460 HC        1 <0>        0.00000
     40 H3         -2.8604    0.2174   -1.1911 HC        1 <0>        0.00000
     41 H4         -2.6221    0.4565   -4.8657 HA        1 <0>        0.00000
     42 H5         -3.5346   -1.2240   -6.4020 HA        1 <0>        0.00000
     43 H6         -4.5493   -3.4751   -6.7847 HA        1 <0>        0.00000
     44 H7         -5.3547   -5.6209   -5.8903 HA        1 <0>        0.00000
     45 H8         -5.2488   -6.0827   -3.4583 HA        1 <0>        0.00000
     46 H9         -4.3359   -4.3991   -1.9115 HA        1 <0>        0.00000
     47 H10        -3.3261   -2.1571   -1.5296 HA        1 <0>        0.00000
     48 H11         1.0368   -2.4921    0.5161 H1        1 <0>        0.00000
     49 H12        -1.5814   -2.6189    0.7494 HC        1 <0>        0.00000
     50 H13        -1.3462   -1.7631    2.2600 HC        1 <0>        0.00000
     51 H14        -0.7466   -4.9205    0.4409 HA        1 <0>        0.00000
     52 H15        -0.1585   -7.0452    1.5603 HA        1 <0>        0.00000
     53 H16         0.4231   -7.0631    3.9718 HA        1 <0>        0.00000
     54 H17         0.4170   -4.9456    5.2651 HA        1 <0>        0.00000
     55 H18        -0.1682   -2.8147    4.1544 HA        1 <0>        0.00000
     56 H19         1.4647   -1.6037    2.7951 H         1 <0>        0.00000
     57 H20         0.8726    2.1950    1.1356 H4        1 <0>        0.00000
     58 H21         0.4650    0.0853    4.6938 HA        1 <0>        0.00000
     59 H22         1.5872    1.0307    6.6713 HA        1 <0>        0.00000
     60 H23         3.3055    2.2387    7.4349 HO        1 <0>        0.00000
     61 H24         4.6145    2.7528    4.1410 HA        1 <0>        0.00000
     62 H25         3.5004    1.8113    2.1582 HA        1 <0>        0.00000
@<TRIPOS>BOND
     1    1    2 1
     2    2    3 1
     3    3    4 1
     4    4    5 1
     5    5    6 ar
     6    6    7 ar
     7    7    8 ar
     8    8    9 ar
     9    9   10 ar
    10   10   11 ar
    11   11   12 ar
    12   12   13 ar
    13    8   13 ar
    14   13   14 ar
    15    5   14 ar
    16    3   15 1
    17   15   16 2
    18   16   17 1
    19   17   18 1
    20   18   19 1
    21   19   20 ar
    22   20   21 ar
    23   21   22 ar
    24   22   23 ar
    25   23   24 ar
    26   19   24 ar
    27   17   25 1
    28   25   26 1
    29   26   27 2
    30   27   28 1
    31   16   28 1
    32   28   29 am
    33    3   29 1
    34   29   30 2
    35   26   31 1
    36   31   32 ar
    37   32   33 ar
    38   33   34 ar
    39   34   35 1
    40   34   36 ar
    41   36   37 ar
    42   31   37 ar
    43    1   38 1
    44    4   39 1
    45    4   40 1
    46    6   41 1
    47    7   42 1
    48    9   43 1
    49   10   44 1
    50   11   45 1
    51   12   46 1
    52   14   47 1
    53   17   48 1
    54   18   49 1
    55   18   50 1
    56   20   51 1
    57   21   52 1
    58   22   53 1
    59   23   54 1
    60   24   55 1
    61   25   56 1
    62   27   57 1
    63   32   58 1
    64   33   59 1
    65   35   60 1
    66   36   61 1
    67   37   62 1
@<TRIPOS>SUBSTRUCTURE
     1 <0>         1 GROUP 0 A     ****
@<TRIPOS>MOLECULE
MiniDrugBank_241
   28    28     1     0     0
SMALL
NO_CHARGES

@<TRIPOS>ATOM
      1 C1         -0.2880    0.1641   -0.1673 C         1 <0>        0.00000
      2 O1         -0.9333    1.0958    0.2947 O         1 <0>        0.00000
      3 C2          1.8851   -1.0363   -0.1124 CA        1 <0>        0.00000
      4 C3          0.8066   -0.4630    0.5610 CA        1 <0>        0.00000
      5 C4          0.7638   -0.4841    1.9551 CA        1 <0>        0.00000
      6 C5          1.7997   -1.0786    2.6757 CA        1 <0>        0.00000
      7 C6          2.8783   -1.6520    2.0022 CA        1 <0>        0.00000
      8 C7          2.9210   -1.6309    0.6081 CA        1 <0>        0.00000
      9 N1          1.7570   -1.1006    4.0852 N2        1 <0>        0.00000
     10 C8          1.3140   -2.2407   -2.2458 C         1 <0>        0.00000
     11 C9          1.9567   -1.0273   -1.6047 CT        1 <0>        0.00000
     12 O2          1.4275   -2.1452   -3.6045 OS        1 <0>        0.00000
     13 O3          0.7791   -3.1562   -1.6352 O         1 <0>        0.00000
     14 C10         1.0626   -2.9814   -5.8246 CT        1 <0>        0.00000
     15 C11         0.8598   -3.2285   -4.3479 CT        1 <0>        0.00000
     16 Br1         0.1957   -1.3163   -6.3566 BR        1 <0>        0.00000
     17 H1         -0.5123   -0.2445   -1.1673 H4        1 <0>        0.00000
     18 H2         -0.0770   -0.0371    2.4815 HA        1 <0>        0.00000
     19 H3          3.6913   -2.1171    2.5539 HA        1 <0>        0.00000
     20 H4          3.7656   -2.0807    0.0929 HA        1 <0>        0.00000
     21 H5          1.0024   -0.6453    4.5577 H         1 <0>        0.00000
     22 H6          2.5282   -1.4878    4.5905 H         1 <0>        0.00000
     23 H7          1.4592   -0.1287   -2.0011 HC        1 <0>        0.00000
     24 H8          3.0070   -0.9850   -1.9316 HC        1 <0>        0.00000
     25 H9          2.1169   -2.8721   -6.0915 H1        1 <0>        0.00000
     26 H10         0.5983   -3.7673   -6.4254 H1        1 <0>        0.00000
     27 H11        -0.1947   -3.3169   -4.0784 H1        1 <0>        0.00000
     28 H12         1.3834   -4.1374   -4.0448 H1        1 <0>        0.00000
@<TRIPOS>BOND
     1    1    2 2
     2    1    4 1
     3    3    4 ar
     4    3    8 ar
     5    3   11 1
     6    4    5 ar
     7    5    6 ar
     8    6    7 ar
     9    6    9 1
    10    7    8 ar
    11   10   11 1
    12   10   12 1
    13   10   13 2
    14   12   15 1
    15   14   15 1
    16   14   16 1
    17    1   17 1
    18    5   18 1
    19    7   19 1
    20    8   20 1
    21    9   21 1
    22    9   22 1
    23   11   23 1
    24   11   24 1
    25   14   25 1
    26   14   26 1
    27   15   27 1
    28   15   28 1
@<TRIPOS>SUBSTRUCTURE
     1 <0>         1 GROUP 0 A     ****
@<TRIPOS>MOLECULE
MiniDrugBank_242
   32    33     1     0     0
SMALL
NO_CHARGES

@<TRIPOS>ATOM
      1 O1         -0.3631    3.7684   -2.4164 O2        1 <0>        0.00000
      2 S1          0.9938    3.5258   -1.9647 SO        1 <0>        0.00000
      3 O2          2.0566    4.4605   -2.2832 O2        1 <0>        0.00000
      4 C1          0.9666    3.3250   -0.1950 CT        1 <0>        0.00000
      5 C2          0.1155    2.1372    0.2292 CT        1 <0>        0.00000
      6 C3          0.6238    0.8239   -0.3653 CT        1 <0>        0.00000
      7 C4          0.6031    0.8258   -1.8918 CT        1 <0>        0.00000
      8 N1          1.4749    1.9244   -2.4029 N3        1 <0>        0.00000
      9 C5          1.9158    1.7977   -3.7747 CA        1 <0>        0.00000
     10 C6          3.2607    1.9835   -4.0943 CA        1 <0>        0.00000
     11 C7          3.6865    1.8616   -5.4170 CA        1 <0>        0.00000
     12 C8          0.9966    1.4899   -4.7777 CA        1 <0>        0.00000
     13 C9          1.4224    1.3680   -6.1004 CA        1 <0>        0.00000
     14 C10         2.7674    1.5539   -6.4200 CA        1 <0>        0.00000
     15 S2          3.3011    1.4013   -8.0755 SO        1 <0>        0.00000
     16 O3          4.7179    1.0650   -8.0723 O2        1 <0>        0.00000
     17 O4          2.3577    0.5520   -8.7892 O2        1 <0>        0.00000
     18 N2          3.1172    3.0083   -8.6262 N3        1 <0>        0.00000
     19 H1          2.0026    3.2107    0.1403 H1        1 <0>        0.00000
     20 H2          0.5694    4.2537    0.2265 H1        1 <0>        0.00000
     21 H3          0.1228    2.0629    1.3226 HC        1 <0>        0.00000
     22 H4         -0.9266    2.2947   -0.0737 HC        1 <0>        0.00000
     23 H5          1.6444    0.6356   -0.0095 HC        1 <0>        0.00000
     24 H6          0.0002   -0.0002    0.0001 HC        1 <0>        0.00000
     25 H7          0.9847   -0.1381   -2.2495 H1        1 <0>        0.00000
     26 H8         -0.4174    0.9422   -2.2753 H1        1 <0>        0.00000
     27 H9          3.9850    2.2237   -3.3202 HA        1 <0>        0.00000
     28 H10         4.7369    2.0082   -5.6542 HA        1 <0>        0.00000
     29 H11        -0.0536    1.3431   -4.5390 HA        1 <0>        0.00000
     30 H12         0.6983    1.1278   -6.8744 HA        1 <0>        0.00000
     31 H13         3.9672    3.5596   -8.7965 H         1 <0>        0.00000
     32 H14         2.3541    3.2080   -9.2843 H         1 <0>        0.00000
@<TRIPOS>BOND
     1    1    2 2
     2    2    4 1
     3    2    3 2
     4    2    8 1
     5    4    5 1
     6    5    6 1
     7    6    7 1
     8    7    8 1
     9    8    9 1
    10    9   10 ar
    11    9   12 ar
    12   10   11 ar
    13   11   14 ar
    14   12   13 ar
    15   13   14 ar
    16   14   15 1
    17   15   18 1
    18   15   16 2
    19   15   17 2
    20    4   19 1
    21    4   20 1
    22    5   21 1
    23    5   22 1
    24    6   23 1
    25    6   24 1
    26    7   25 1
    27    7   26 1
    28   10   27 1
    29   11   28 1
    30   12   29 1
    31   13   30 1
    32   18   31 1
    33   18   32 1
@<TRIPOS>SUBSTRUCTURE
     1 <0>         1 GROUP 0 A     ****
@<TRIPOS>MOLECULE
MiniDrugBank_243
  142   152     1     0     0
SMALL
NO_CHARGES

@<TRIPOS>ATOM
      1 C1         10.5696   -7.7910    8.5121 CT        1 <0>        0.00000
      2 N1         10.6040   -9.2130    8.7671 N         1 <0>        0.00000
      3 C2         11.7017   -9.8579    9.3183 C         1 <0>        0.00000
      4 O1         12.7520   -9.3142    9.6488 O         1 <0>        0.00000
      5 C3         11.4527  -11.3468    9.4741 CT        1 <0>        0.00000
      6 C4         11.8740  -12.1432    8.2446 CT        1 <0>        0.00000
      7 N2         11.1431  -11.7148    7.0566 N         1 <0>        0.00000
      8 C5         11.5763  -11.9827    5.7641 C         1 <0>        0.00000
      9 O2         12.5457  -12.6818    5.4815 O         1 <0>        0.00000
     10 C6         10.7764  -11.3308    4.7385 CC        1 <0>        0.00000
     11 C7         10.8832  -11.5969    3.3855 CW        1 <0>        0.00000
     12 S1          9.8491  -10.5616    2.4954 S         1 <0>        0.00000
     13 C8          9.3624   -9.8154    3.9649 CR        1 <0>        0.00000
     14 N3          9.8679  -10.3338    5.0628 NB        1 <0>        0.00000
     15 C9          8.4999   -8.6391    3.9207 CA        1 <0>        0.00000
     16 C10         7.1110   -8.8035    3.9351 CA        1 <0>        0.00000
     17 C11         6.2762   -7.6946    3.8663 CA        1 <0>        0.00000
     18 C12         6.8645   -6.4461    3.7831 CA        1 <0>        0.00000
     19 N4          8.1996   -6.2375    3.7710 NC        1 <0>        0.00000
     20 C13         9.0010   -7.3301    3.8476 CA        1 <0>        0.00000
     21 C14        10.4287   -7.0407    3.8552 CC        1 <0>        0.00000
     22 C15        11.0220   -6.0986    3.0386 CW        1 <0>        0.00000
     23 S2         12.7198   -6.1014    3.2888 S         1 <0>        0.00000
     24 C16        12.5380   -7.3296    4.4799 CR        1 <0>        0.00000
     25 N5         11.2976   -7.7116    4.6969 NB        1 <0>        0.00000
     26 C17        13.6187   -7.8992    5.1687 CC        1 <0>        0.00000
     27 C18        13.4558   -8.7140    6.2729 CW        1 <0>        0.00000
     28 S3         14.9806   -9.2505    6.8368 S         1 <0>        0.00000
     29 C19        15.7466   -8.3558    5.5792 CR        1 <0>        0.00000
     30 N6         14.9325   -7.6972    4.7800 NB        1 <0>        0.00000
     31 C20        17.2423   -8.3828    5.4491 CT        1 <0>        0.00000
     32 N7         17.5949   -9.4626    4.5328 N         1 <0>        0.00000
     33 C21        18.6275  -10.3547    4.7773 C         1 <0>        0.00000
     34 O3         19.3474  -10.3515    5.7742 O         1 <0>        0.00000
     35 C22        18.7747  -11.3955    3.6881 CT        1 <0>        0.00000
     36 N8         18.6555  -12.6932    4.3229 N         1 <0>        0.00000
     37 C23        17.4296  -13.3259    4.4830 C         1 <0>        0.00000
     38 O4         16.3631  -12.8532    4.0940 O         1 <0>        0.00000
     39 C24        17.4610  -14.6109    5.1731 CC        1 <0>        0.00000
     40 C25        18.5640  -15.2980    5.6465 CW        1 <0>        0.00000
     41 C26        20.0040  -14.9618    5.5923 CT        1 <0>        0.00000
     42 O5         20.7658  -15.9908    6.2215 OS        1 <0>        0.00000
     43 C27        22.1544  -15.6996    6.1872 CT        1 <0>        0.00000
     44 S4         18.0776  -16.7528    6.4181 S         1 <0>        0.00000
     45 C28        16.4406  -16.3722    6.0740 CR        1 <0>        0.00000
     46 N9         16.2528  -15.2523    5.4089 NB        1 <0>        0.00000
     47 C29        15.3241  -17.2708    6.5261 CT        1 <0>        0.00000
     48 N10        14.2724  -16.4147    7.0694 N         1 <0>        0.00000
     49 C30        13.2201  -16.8582    7.8537 C         1 <0>        0.00000
     50 O6         13.0271  -18.0228    8.1878 O         1 <0>        0.00000
     51 C31        12.3290  -15.7729    8.2403 CC        1 <0>        0.00000
     52 C32        11.0904  -15.9274    8.8314 CW        1 <0>        0.00000
     53 C33        10.3722  -17.1388    9.2759 CT        1 <0>        0.00000
     54 S5         10.3527  -14.3946    9.0585 S         1 <0>        0.00000
     55 C34        11.7483  -13.6332    8.4042 CR        1 <0>        0.00000
     56 N11        12.6977  -14.4565    8.0164 NB        1 <0>        0.00000
     57 C35        14.8019  -18.1073    5.3603 CT        1 <0>        0.00000
     58 C36        14.2719  -17.2058    4.2475 CT        1 <0>        0.00000
     59 C37        15.8966  -19.0296    4.8286 CT        1 <0>        0.00000
     60 C38        17.7992   -7.0562    4.9410 CT        1 <0>        0.00000
     61 O7         17.4433   -6.0282    5.8610 OH        1 <0>        0.00000
     62 C39        19.3012   -7.0810    4.8051 CA        1 <0>        0.00000
     63 C40        20.1052   -6.7028    5.8803 CA        1 <0>        0.00000
     64 C41        21.4942   -6.7260    5.7545 CA        1 <0>        0.00000
     65 C42        22.0792   -7.1275    4.5536 CA        1 <0>        0.00000
     66 C43        21.2751   -7.5058    3.4784 CA        1 <0>        0.00000
     67 C44        19.8861   -7.4826    3.6041 CA        1 <0>        0.00000
     68 C45         6.0705   -5.2483    3.7000 CR        1 <0>        0.00000
     69 N12         4.7564   -5.2141    3.6944 NB        1 <0>        0.00000
     70 C46         4.3444   -3.8989    3.6034 CC        1 <0>        0.00000
     71 C47         5.3487   -2.9557    3.5406 CW        1 <0>        0.00000
     72 S6          6.8749   -3.7358    3.5990 S         1 <0>        0.00000
     73 C48         2.9449   -3.5790    3.5777 CR        1 <0>        0.00000
     74 N13         2.5051   -2.3719    3.4940 NB        1 <0>        0.00000
     75 C49         1.0505   -2.5468    3.4403 CT        1 <0>        0.00000
     76 C50         0.8084   -4.0008    3.7813 CT        1 <0>        0.00000
     77 O8          2.0844   -4.6132    3.6434 OS        1 <0>        0.00000
     78 C51         0.6291   -2.2097    2.0323 C         1 <0>        0.00000
     79 O9          1.4023   -2.3924    1.0905 O         1 <0>        0.00000
     80 N14        -0.6559   -1.7077    1.8974 N         1 <0>        0.00000
     81 C52        -1.6041   -1.4756    2.9841 CT        1 <0>        0.00000
     82 C53        -2.8819   -1.0192    2.2964 CT        1 <0>        0.00000
     83 C54        -2.3739   -0.3429    1.0253 CT        1 <0>        0.00000
     84 C55        -1.1633   -1.1835    0.6362 CT        1 <0>        0.00000
     85 C56        -1.5506   -2.3606   -0.2074 C         1 <0>        0.00000
     86 N15        -2.0558   -2.0215   -1.4425 N         1 <0>        0.00000
     87 O10        -1.4075   -3.5211    0.1777 O         1 <0>        0.00000
     88 H1         10.9393   -7.5809    7.5050 H1        1 <0>        0.00000
     89 H2         11.1969   -7.2621    9.2347 H1        1 <0>        0.00000
     90 H3          9.5459   -7.4166    8.5964 H1        1 <0>        0.00000
     91 H4          9.7697   -9.7504    8.5503 H         1 <0>        0.00000
     92 H5         12.0085  -11.7016   10.3496 HC        1 <0>        0.00000
     93 H6         10.3848  -11.5026    9.6643 HC        1 <0>        0.00000
     94 H7         12.9473  -11.9173    8.0418 H1        1 <0>        0.00000
     95 H8         10.2820  -11.1994    7.1789 H         1 <0>        0.00000
     96 H9         11.4896  -12.3418    2.8892 H4        1 <0>        0.00000
     97 H10         6.6595   -9.7881    3.9825 HA        1 <0>        0.00000
     98 H11         5.1980   -7.8208    3.8700 HA        1 <0>        0.00000
     99 H12        10.5701   -5.4252    2.3264 H4        1 <0>        0.00000
    100 H13        12.5441   -9.0229    6.7661 H4        1 <0>        0.00000
    101 H14        17.7036   -8.6317    6.3768 H1        1 <0>        0.00000
    102 H15        17.0721   -9.5641    3.6955 H         1 <0>        0.00000
    103 H16        17.9614  -11.2971    2.9991 H1        1 <0>        0.00000
    104 H17        19.7330  -11.2887    3.2277 H1        1 <0>        0.00000
    105 H18        19.5004  -13.1540    4.6136 H         1 <0>        0.00000
    106 H19        20.3649  -14.8547    4.5552 H1        1 <0>        0.00000
    107 H20        20.2221  -14.0097    6.1051 H1        1 <0>        0.00000
    108 H21        22.7052  -16.5055    6.6759 H1        1 <0>        0.00000
    109 H22        22.3383  -14.7525    6.6983 H1        1 <0>        0.00000
    110 H23        22.4718  -15.6201    5.1459 H1        1 <0>        0.00000
    111 H24        15.6401  -17.8991    7.3147 H1        1 <0>        0.00000
    112 H25        14.3154  -15.4268    6.8579 H         1 <0>        0.00000
    113 H26        10.6126  -17.3788   10.3235 HC        1 <0>        0.00000
    114 H27         9.2793  -17.0173    9.1996 HC        1 <0>        0.00000
    115 H28        10.6272  -18.0176    8.6611 HC        1 <0>        0.00000
    116 H29        13.9745  -18.7283    5.7246 HC        1 <0>        0.00000
    117 H30        13.8938  -17.7939    3.4041 HC        1 <0>        0.00000
    118 H31        15.0613  -16.5457    3.8729 HC        1 <0>        0.00000
    119 H32        13.4547  -16.5757    4.6141 HC        1 <0>        0.00000
    120 H33        15.5350  -19.6360    3.9911 HC        1 <0>        0.00000
    121 H34        16.2469  -19.7093    5.6126 HC        1 <0>        0.00000
    122 H35        16.7576  -18.4497    4.4795 HC        1 <0>        0.00000
    123 H36        17.3200   -6.8206    3.9850 H1        1 <0>        0.00000
    124 H37        17.8112   -5.2026    5.5092 HO        1 <0>        0.00000
    125 H38        19.6587   -6.3881    6.8199 HA        1 <0>        0.00000
    126 H39        22.1202   -6.4320    6.5918 HA        1 <0>        0.00000
    127 H40        23.1607   -7.1454    4.4559 HA        1 <0>        0.00000
    128 H41        21.7305   -7.8182    2.5432 HA        1 <0>        0.00000
    129 H42        19.2672   -7.7793    2.7615 HA        1 <0>        0.00000
    130 H43         5.2675   -1.8803    3.4659 H4        1 <0>        0.00000
    131 H44         0.5341   -1.8726    4.1300 H1        1 <0>        0.00000
    132 H45         0.4812   -4.1231    4.8196 H1        1 <0>        0.00000
    133 H46         0.0870   -4.4937    3.1222 H1        1 <0>        0.00000
    134 H47        -1.7455   -2.3824    3.5784 H1        1 <0>        0.00000
    135 H48        -1.1951   -0.6876    3.6256 H1        1 <0>        0.00000
    136 H49        -3.5001   -1.8869    2.0372 HC        1 <0>        0.00000
    137 H50        -3.4810   -0.3524    2.9226 HC        1 <0>        0.00000
    138 H51        -3.1424   -0.2918    0.2482 HC        1 <0>        0.00000
    139 H52        -2.0546    0.6793    1.2626 HC        1 <0>        0.00000
    140 H53        -0.3932   -0.6110    0.1106 H1        1 <0>        0.00000
    141 H54        -2.3504   -2.7353   -2.1007 H         1 <0>        0.00000
    142 H55        -2.1519   -1.0578   -1.7457 H         1 <0>        0.00000
@<TRIPOS>BOND
     1    1    2 1
     2    2    3 am
     3    3    4 2
     4    3    5 1
     5    5    6 1
     6    6    7 1
     7    7    8 am
     8    8    9 2
     9    8   10 1
    10   10   11 2
    11   11   12 1
    12   12   13 1
    13   13   14 2
    14   10   14 1
    15   13   15 1
    16   15   16 ar
    17   16   17 ar
    18   17   18 ar
    19   18   19 ar
    20   19   20 ar
    21   15   20 ar
    22   20   21 1
    23   21   22 2
    24   22   23 1
    25   23   24 1
    26   24   25 2
    27   21   25 1
    28   24   26 1
    29   26   27 2
    30   27   28 1
    31   28   29 1
    32   29   30 2
    33   26   30 1
    34   29   31 1
    35   31   32 1
    36   32   33 am
    37   33   34 2
    38   33   35 1
    39   35   36 1
    40   36   37 am
    41   37   38 2
    42   37   39 1
    43   39   40 2
    44   40   41 1
    45   41   42 1
    46   42   43 1
    47   40   44 1
    48   44   45 1
    49   45   46 2
    50   39   46 1
    51   45   47 1
    52   47   48 1
    53   48   49 am
    54   49   50 2
    55   49   51 1
    56   51   52 2
    57   52   53 1
    58   52   54 1
    59   54   55 1
    60    6   55 1
    61   55   56 2
    62   51   56 1
    63   47   57 1
    64   57   58 1
    65   57   59 1
    66   31   60 1
    67   60   61 1
    68   60   62 1
    69   62   63 ar
    70   63   64 ar
    71   64   65 ar
    72   65   66 ar
    73   66   67 ar
    74   62   67 ar
    75   18   68 1
    76   68   69 2
    77   69   70 1
    78   70   71 2
    79   71   72 1
    80   68   72 1
    81   70   73 1
    82   73   74 2
    83   74   75 1
    84   75   76 1
    85   76   77 1
    86   73   77 1
    87   75   78 1
    88   78   79 2
    89   78   80 am
    90   80   81 1
    91   81   82 1
    92   82   83 1
    93   83   84 1
    94   80   84 1
    95   84   85 1
    96   85   86 am
    97   85   87 2
    98    1   88 1
    99    1   89 1
   100    1   90 1
   101    2   91 1
   102    5   92 1
   103    5   93 1
   104    6   94 1
   105    7   95 1
   106   11   96 1
   107   16   97 1
   108   17   98 1
   109   22   99 1
   110   27  100 1
   111   31  101 1
   112   32  102 1
   113   35  103 1
   114   35  104 1
   115   36  105 1
   116   41  106 1
   117   41  107 1
   118   43  108 1
   119   43  109 1
   120   43  110 1
   121   47  111 1
   122   48  112 1
   123   53  113 1
   124   53  114 1
   125   53  115 1
   126   57  116 1
   127   58  117 1
   128   58  118 1
   129   58  119 1
   130   59  120 1
   131   59  121 1
   132   59  122 1
   133   60  123 1
   134   61  124 1
   135   63  125 1
   136   64  126 1
   137   65  127 1
   138   66  128 1
   139   67  129 1
   140   71  130 1
   141   75  131 1
   142   76  132 1
   143   76  133 1
   144   81  134 1
   145   81  135 1
   146   82  136 1
   147   82  137 1
   148   83  138 1
   149   83  139 1
   150   84  140 1
   151   86  141 1
   152   86  142 1
@<TRIPOS>SUBSTRUCTURE
     1 <0>         1 GROUP 0 A     ****
@<TRIPOS>MOLECULE
MiniDrugBank_244
  203   206     1     0     0
SMALL
NO_CHARGES

@<TRIPOS>ATOM
      1 S1          7.4713   -6.6462  -14.2776 S         1 <0>        0.00000
      2 C1          7.4944   -4.9395  -13.6949 CT        1 <0>        0.00000
      3 C2          8.9326   -4.7664  -13.2377 CT        1 <0>        0.00000
      4 N1          9.4553   -6.0327  -12.6911 NB        1 <0>        0.00000
      5 C3          8.8068   -7.0172  -13.2203 CR        1 <0>        0.00000
      6 C4          9.1048   -8.4489  -12.9320 CT        1 <0>        0.00000
      7 N2         10.4472   -8.6937  -13.3888 N3        1 <0>        0.00000
      8 C5          8.9574   -3.7704  -12.0993 C         1 <0>        0.00000
      9 N3          9.1600   -2.4634  -12.4996 N         1 <0>        0.00000
     10 C6          9.2165   -1.3578  -11.5789 CT        1 <0>        0.00000
     11 C7          7.7831   -0.8863  -11.3548 C         1 <0>        0.00000
     12 N4          7.5650   -0.4888  -10.0430 N         1 <0>        0.00000
     13 C8          6.2632   -0.0395   -9.5461 CT        1 <0>        0.00000
     14 C9          5.5312   -1.2887   -9.0651 C         1 <0>        0.00000
     15 N5          4.1563   -1.1875   -9.2179 N         1 <0>        0.00000
     16 C10         3.2385   -2.2222   -8.8132 CT        1 <0>        0.00000
     17 C11         2.3769   -1.6752   -7.6758 C         1 <0>        0.00000
     18 N6          2.0585   -2.6524   -6.7435 N         1 <0>        0.00000
     19 C12         1.2298   -2.4051   -5.5904 CT        1 <0>        0.00000
     20 C13         2.1711   -1.9395   -4.4869 C         1 <0>        0.00000
     21 N7          1.6241   -0.9161   -3.7254 N         1 <0>        0.00000
     22 C14         2.2648   -0.3921   -2.5288 CT        1 <0>        0.00000
     23 C15         1.8482    1.0662   -2.3636 C         1 <0>        0.00000
     24 N8          2.6304    1.7230   -1.4220 N         1 <0>        0.00000
     25 C16         8.8789   -8.8038  -11.4451 CT        1 <0>        0.00000
     26 C17         7.4176   -8.5423  -11.0571 CT        1 <0>        0.00000
     27 C18         9.3038  -10.2497  -11.1036 CT        1 <0>        0.00000
     28 C19         8.5474  -11.3085  -11.8959 CT        1 <0>        0.00000
     29 O1          8.8025   -4.1635  -10.9491 O         1 <0>        0.00000
     30 O2          6.9262   -0.9075  -12.2359 O         1 <0>        0.00000
     31 O3          6.1188   -2.2520   -8.5769 O         1 <0>        0.00000
     32 O4          1.9968   -0.5070   -7.6284 O         1 <0>        0.00000
     33 O5          3.2649   -2.4624   -4.2817 O         1 <0>        0.00000
     34 O6          0.9087    1.5637   -2.9794 O         1 <0>        0.00000
     35 C20        10.0780   -0.2041  -12.1082 CT        1 <0>        0.00000
     36 C21        11.5497   -0.5710  -12.3878 CT        1 <0>        0.00000
     37 C22        12.2145   -1.0574  -11.0969 CT        1 <0>        0.00000
     38 C23        12.3431    0.6018  -12.9654 CT        1 <0>        0.00000
     39 C24         6.4743    0.9836   -8.4201 CT        1 <0>        0.00000
     40 C25         5.2540    1.8663   -8.1588 CT        1 <0>        0.00000
     41 C26         5.5010    2.8561   -7.0477 C         1 <0>        0.00000
     42 O7          4.4296    3.6493   -6.8001 OH        1 <0>        0.00000
     43 O8          6.5480    2.9249   -6.4166 O         1 <0>        0.00000
     44 C27         2.3907   -2.7742   -9.9846 CT        1 <0>        0.00000
     45 C28         3.2609   -3.3906  -11.1024 CT        1 <0>        0.00000
     46 C29         1.4658   -1.6777  -10.5294 CT        1 <0>        0.00000
     47 C30         4.1216   -4.5550  -10.6291 CT        1 <0>        0.00000
     48 C31         0.4746   -3.6729   -5.1773 CT        1 <0>        0.00000
     49 C32         1.8588   -1.2130   -1.3085 CT        1 <0>        0.00000
     50 C33         2.4819    3.1144   -1.0126 CT        1 <0>        0.00000
     51 C34         1.2609    3.2552   -0.1089 C         1 <0>        0.00000
     52 O9          0.2664    2.5392   -0.2031 O         1 <0>        0.00000
     53 N9          1.3941    4.3049    0.7913 N         1 <0>        0.00000
     54 C35         0.3532    4.6585    1.7442 CT        1 <0>        0.00000
     55 C36         0.4716    3.7210    2.9423 C         1 <0>        0.00000
     56 N10        -0.6960    3.6885    3.6926 N         1 <0>        0.00000
     57 O10         1.4971    3.0977    3.2075 O         1 <0>        0.00000
     58 C37        -0.8810    2.8139    4.8403 CT        1 <0>        0.00000
     59 C38        -1.9050    1.7883    4.3777 C         1 <0>        0.00000
     60 N11        -1.3279    0.5833    4.0022 N         1 <0>        0.00000
     61 O11        -3.1023    2.0530    4.2788 O         1 <0>        0.00000
     62 C39        -2.1124   -0.5371    3.5052 CT        1 <0>        0.00000
     63 C40        -1.2082   -1.4248    2.6577 C         1 <0>        0.00000
     64 N12        -1.9364   -2.2483    1.8088 N         1 <0>        0.00000
     65 O12         0.0165   -1.4266    2.7600 O         1 <0>        0.00000
     66 C41        -0.5363   -3.4230   -4.0541 CT        1 <0>        0.00000
     67 C42         2.6637   -2.5095   -1.2204 CT        1 <0>        0.00000
     68 C43         2.2790   -3.3520   -0.0087 CT        1 <0>        0.00000
     69 N13         3.0355   -4.5706    0.0742 N3        1 <0>        0.00000
     70 C44         2.4355    4.1018   -2.1711 CT        1 <0>        0.00000
     71 C45         2.7771    5.5102   -1.6723 CT        1 <0>        0.00000
     72 C46         3.3886    3.7144   -3.3183 CT        1 <0>        0.00000
     73 C47         4.8492    3.6444   -2.8960 CT        1 <0>        0.00000
     74 C48         0.4835    6.1106    2.1813 CT        1 <0>        0.00000
     75 C49        -0.0839    7.0564    1.1560 CA        1 <0>        0.00000
     76 C50         0.7329    7.5593    0.1433 CA        1 <0>        0.00000
     77 C51         0.2071    8.4352   -0.8064 CA        1 <0>        0.00000
     78 C52        -1.1355    8.8082   -0.7434 CA        1 <0>        0.00000
     79 C53        -1.9523    8.3053    0.2693 CA        1 <0>        0.00000
     80 C54        -1.4265    7.4294    1.2190 CA        1 <0>        0.00000
     81 C55        -1.3903    3.6013    6.0381 CT        1 <0>        0.00000
     82 C56        -0.4136    4.6652    6.4652 CC        1 <0>        0.00000
     83 N14        -0.4818    5.9293    5.9351 NB        1 <0>        0.00000
     84 C57         0.4969    6.5886    6.5143 CR        1 <0>        0.00000
     85 N15         1.1896    5.8015    7.3917 NA        1 <0>        0.00000
     86 C58         0.6154    4.5617    7.3713 CW        1 <0>        0.00000
     87 C59        -1.3177   -3.2461    0.9486 CT        1 <0>        0.00000
     88 C60        -2.2372   -3.4785   -0.2461 C         1 <0>        0.00000
     89 N16        -1.5910   -4.1315   -1.2860 N         1 <0>        0.00000
     90 O13        -3.4189   -3.1403   -0.2590 O         1 <0>        0.00000
     91 C61        -1.0844   -4.5448    1.7117 CT        1 <0>        0.00000
     92 C62        -2.3714   -5.1387    2.2399 C         1 <0>        0.00000
     93 O14        -2.8467   -4.8829    3.3424 O         1 <0>        0.00000
     94 N17        -2.9523   -6.0035    1.3373 N         1 <0>        0.00000
     95 C63        -1.2778   -4.7071   -3.6712 CT        1 <0>        0.00000
     96 C64        -2.7103   -1.3378    4.6566 CT        1 <0>        0.00000
     97 C65        -2.2616   -4.4851   -2.5250 CT        1 <0>        0.00000
     98 C66        -1.6447   -1.8970    5.5607 C         1 <0>        0.00000
     99 O15        -1.0944   -2.9820    5.4483 O         1 <0>        0.00000
    100 O16        -1.3663   -1.0083    6.5489 OH        1 <0>        0.00000
    101 H1          7.2280   -4.2382  -14.4906 H1        1 <0>        0.00000
    102 H2          6.7761   -4.8293  -12.8757 H1        1 <0>        0.00000
    103 H3          9.5713   -4.3946  -14.0257 H1        1 <0>        0.00000
    104 H4          8.4384   -9.0507  -13.5640 H1        1 <0>        0.00000
    105 H5         11.2204   -8.4568  -12.7885 H         1 <0>        0.00000
    106 H6         10.6037   -8.9019  -14.3618 H         1 <0>        0.00000
    107 H7          9.2745   -2.2736  -13.4907 H         1 <0>        0.00000
    108 H8          9.6107   -1.7475  -10.6350 H1        1 <0>        0.00000
    109 H9          8.3351   -0.5149   -9.3812 H         1 <0>        0.00000
    110 H10         5.7195    0.4285  -10.3733 H1        1 <0>        0.00000
    111 H11         3.7779   -0.3427   -9.6355 H         1 <0>        0.00000
    112 H12         3.8585   -3.0259   -8.3959 H1        1 <0>        0.00000
    113 H13         2.4279   -3.5885   -6.8804 H         1 <0>        0.00000
    114 H14         0.5299   -1.6108   -5.8711 H1        1 <0>        0.00000
    115 H15         0.7370   -0.5151   -4.0165 H         1 <0>        0.00000
    116 H16         3.3513   -0.4421   -2.6663 H1        1 <0>        0.00000
    117 H17         3.3750    1.1997   -0.9706 H         1 <0>        0.00000
    118 H18         9.5014   -8.1225  -10.8486 HC        1 <0>        0.00000
    119 H19         7.2436   -8.7901  -10.0044 HC        1 <0>        0.00000
    120 H20         7.1550   -7.4877  -11.1846 HC        1 <0>        0.00000
    121 H21         6.7292   -9.1395  -11.6643 HC        1 <0>        0.00000
    122 H22        10.3718  -10.3791  -11.3129 HC        1 <0>        0.00000
    123 H23         9.1643  -10.4460  -10.0338 HC        1 <0>        0.00000
    124 H24         8.8928  -12.3071  -11.6094 HC        1 <0>        0.00000
    125 H25         7.4720  -11.2656  -11.7022 HC        1 <0>        0.00000
    126 H26         8.7136  -11.1891  -12.9710 HC        1 <0>        0.00000
    127 H27        10.0532    0.6195  -11.3808 HC        1 <0>        0.00000
    128 H28         9.6272    0.1951  -13.0265 HC        1 <0>        0.00000
    129 H29        11.5839   -1.3973  -13.1083 HC        1 <0>        0.00000
    130 H30        13.2619   -1.3233  -11.2748 HC        1 <0>        0.00000
    131 H31        11.7070   -1.9471  -10.7092 HC        1 <0>        0.00000
    132 H32        12.1878   -0.2857  -10.3201 HC        1 <0>        0.00000
    133 H33        13.3844    0.3210  -13.1565 HC        1 <0>        0.00000
    134 H34        11.9052    0.9380  -13.9115 HC        1 <0>        0.00000
    135 H35        12.3393    1.4592  -12.2860 HC        1 <0>        0.00000
    136 H36         6.7354    0.4535   -7.4944 HC        1 <0>        0.00000
    137 H37         7.3242    1.6371   -8.6571 HC        1 <0>        0.00000
    138 H38         5.0215    2.4499   -9.0579 HC        1 <0>        0.00000
    139 H39         4.3563    1.2739   -7.9536 HC        1 <0>        0.00000
    140 H40         3.6497    3.4968   -7.3750 HO        1 <0>        0.00000
    141 H41         1.7456   -3.5702   -9.5891 HC        1 <0>        0.00000
    142 H42         2.6162   -3.7603  -11.9080 HC        1 <0>        0.00000
    143 H43         3.9137   -2.6278  -11.5432 HC        1 <0>        0.00000
    144 H44         0.8599   -2.0565  -11.3596 HC        1 <0>        0.00000
    145 H45         0.7710   -1.3272   -9.7601 HC        1 <0>        0.00000
    146 H46         2.0349   -0.8147  -10.8899 HC        1 <0>        0.00000
    147 H47         4.7241   -4.9676  -11.4432 HC        1 <0>        0.00000
    148 H48         3.4848   -5.3612  -10.2503 HC        1 <0>        0.00000
    149 H49         4.7918   -4.2458   -9.8210 HC        1 <0>        0.00000
    150 H50        -0.0523   -4.0797   -6.0503 HC        1 <0>        0.00000
    151 H51         1.1875   -4.4447   -4.8579 HC        1 <0>        0.00000
    152 H52         2.0173   -0.6110   -0.4081 HC        1 <0>        0.00000
    153 H53         0.7885   -1.4309   -1.3740 HC        1 <0>        0.00000
    154 H54         3.3770    3.3270   -0.4144 H1        1 <0>        0.00000
    155 H55         2.2690    4.8204    0.8263 H         1 <0>        0.00000
    156 H56        -0.6185    4.4983    1.2618 H1        1 <0>        0.00000
    157 H57        -1.4587    4.3057    3.4272 H         1 <0>        0.00000
    158 H58         0.0654    2.3277    5.0990 H1        1 <0>        0.00000
    159 H59        -0.3200    0.4794    4.0771 H         1 <0>        0.00000
    160 H60        -2.9170   -0.1367    2.8770 H1        1 <0>        0.00000
    161 H61        -2.9508   -2.1867    1.8144 H         1 <0>        0.00000
    162 H62        -0.0175   -3.0334   -3.1725 HC        1 <0>        0.00000
    163 H63        -1.2585   -2.6607   -4.3701 HC        1 <0>        0.00000
    164 H64         2.5237   -3.0940   -2.1382 HC        1 <0>        0.00000
    165 H65         3.7312   -2.2671   -1.1516 HC        1 <0>        0.00000
    166 H66         1.2172   -3.6169   -0.0297 H1        1 <0>        0.00000
    167 H67         2.4724   -2.7927    0.9122 H1        1 <0>        0.00000
    168 H68         3.9521   -4.5539    0.4939 H         1 <0>        0.00000
    169 H69         2.7383   -5.3722   -0.4605 H         1 <0>        0.00000
    170 H70         1.4097    4.1291   -2.5656 HC        1 <0>        0.00000
    171 H71         2.7495    6.2376   -2.4909 HC        1 <0>        0.00000
    172 H72         3.7797    5.5329   -1.2323 HC        1 <0>        0.00000
    173 H73         2.0693    5.8377   -0.9035 HC        1 <0>        0.00000
    174 H74         3.2889    4.4272   -4.1460 HC        1 <0>        0.00000
    175 H75         3.1004    2.7319   -3.7124 HC        1 <0>        0.00000
    176 H76         5.4735    3.3657   -3.7513 HC        1 <0>        0.00000
    177 H77         4.9966    2.8957   -2.1112 HC        1 <0>        0.00000
    178 H78         5.2078    4.6097   -2.5274 HC        1 <0>        0.00000
    179 H79         1.5385    6.3491    2.3608 HC        1 <0>        0.00000
    180 H80        -0.0276    6.2549    3.1406 HC        1 <0>        0.00000
    181 H81         1.7802    7.2748    0.0862 HA        1 <0>        0.00000
    182 H82         0.8429    8.8263   -1.5952 HA        1 <0>        0.00000
    183 H83        -1.5447    9.4903   -1.4830 HA        1 <0>        0.00000
    184 H84        -2.9977    8.5958    0.3185 HA        1 <0>        0.00000
    185 H85        -2.0702    7.0420    2.0043 HA        1 <0>        0.00000
    186 H86        -1.5826    2.9189    6.8748 HC        1 <0>        0.00000
    187 H87        -2.3554    4.0618    5.7950 HC        1 <0>        0.00000
    188 H88         0.7544    7.6246    6.3453 H5        1 <0>        0.00000
    189 H89         1.9812    6.0852    7.9534 H         1 <0>        0.00000
    190 H90         0.9815    3.7497    7.9830 H4        1 <0>        0.00000
    191 H91        -0.3601   -2.8477    0.5938 H1        1 <0>        0.00000
    192 H92        -0.6100   -4.3719   -1.1765 H         1 <0>        0.00000
    193 H93        -0.4129   -4.3539    2.5536 HC        1 <0>        0.00000
    194 H94        -0.6069   -5.2726    1.0493 HC        1 <0>        0.00000
    195 H95        -2.5403   -6.1987    0.4303 H         1 <0>        0.00000
    196 H96        -3.8225   -6.4776    1.5548 H         1 <0>        0.00000
    197 H97        -1.8276   -5.0822   -4.5426 HC        1 <0>        0.00000
    198 H98        -0.5526   -5.4802   -3.3886 HC        1 <0>        0.00000
    199 H99        -3.3626   -0.6861    5.2434 HC        1 <0>        0.00000
    200 H100       -3.2952   -2.1663    4.2490 HC        1 <0>        0.00000
    201 H101       -2.9868   -3.7034   -2.7770 H1        1 <0>        0.00000
    202 H102       -2.8208   -5.4067   -2.3306 H1        1 <0>        0.00000
    203 H103       -1.9093   -0.1949    6.4729 HO        1 <0>        0.00000
@<TRIPOS>BOND
     1    1    2 1
     2    2    3 1
     3    3    4 1
     4    4    5 2
     5    1    5 1
     6    5    6 1
     7    6    7 1
     8    3    8 1
     9    8    9 am
    10    9   10 1
    11   10   11 1
    12   11   12 am
    13   12   13 1
    14   13   14 1
    15   14   15 am
    16   15   16 1
    17   16   17 1
    18   17   18 am
    19   18   19 1
    20   19   20 1
    21   20   21 am
    22   21   22 1
    23   22   23 1
    24   23   24 am
    25    6   25 1
    26   25   26 1
    27   25   27 1
    28   27   28 1
    29    8   29 2
    30   11   30 2
    31   14   31 2
    32   17   32 2
    33   20   33 2
    34   23   34 2
    35   10   35 1
    36   35   36 1
    37   36   37 1
    38   36   38 1
    39   13   39 1
    40   39   40 1
    41   40   41 1
    42   41   42 1
    43   41   43 2
    44   16   44 1
    45   44   45 1
    46   44   46 1
    47   45   47 1
    48   19   48 1
    49   22   49 1
    50   24   50 1
    51   50   51 1
    52   51   52 2
    53   51   53 am
    54   53   54 1
    55   54   55 1
    56   55   56 am
    57   55   57 2
    58   56   58 1
    59   58   59 1
    60   59   60 am
    61   59   61 2
    62   60   62 1
    63   62   63 1
    64   63   64 am
    65   63   65 2
    66   48   66 1
    67   49   67 1
    68   67   68 1
    69   68   69 1
    70   50   70 1
    71   70   71 1
    72   70   72 1
    73   72   73 1
    74   54   74 1
    75   74   75 1
    76   75   76 ar
    77   76   77 ar
    78   77   78 ar
    79   78   79 ar
    80   79   80 ar
    81   75   80 ar
    82   58   81 1
    83   81   82 1
    84   82   83 1
    85   83   84 2
    86   84   85 1
    87   85   86 1
    88   82   86 2
    89   64   87 1
    90   87   88 1
    91   88   89 am
    92   88   90 2
    93   87   91 1
    94   91   92 1
    95   92   93 2
    96   92   94 am
    97   66   95 1
    98   62   96 1
    99   95   97 1
   100   89   97 1
   101   96   98 1
   102   98   99 2
   103   98  100 1
   104    2  101 1
   105    2  102 1
   106    3  103 1
   107    6  104 1
   108    7  105 1
   109    7  106 1
   110    9  107 1
   111   10  108 1
   112   12  109 1
   113   13  110 1
   114   15  111 1
   115   16  112 1
   116   18  113 1
   117   19  114 1
   118   21  115 1
   119   22  116 1
   120   24  117 1
   121   25  118 1
   122   26  119 1
   123   26  120 1
   124   26  121 1
   125   27  122 1
   126   27  123 1
   127   28  124 1
   128   28  125 1
   129   28  126 1
   130   35  127 1
   131   35  128 1
   132   36  129 1
   133   37  130 1
   134   37  131 1
   135   37  132 1
   136   38  133 1
   137   38  134 1
   138   38  135 1
   139   39  136 1
   140   39  137 1
   141   40  138 1
   142   40  139 1
   143   42  140 1
   144   44  141 1
   145   45  142 1
   146   45  143 1
   147   46  144 1
   148   46  145 1
   149   46  146 1
   150   47  147 1
   151   47  148 1
   152   47  149 1
   153   48  150 1
   154   48  151 1
   155   49  152 1
   156   49  153 1
   157   50  154 1
   158   53  155 1
   159   54  156 1
   160   56  157 1
   161   58  158 1
   162   60  159 1
   163   62  160 1
   164   64  161 1
   165   66  162 1
   166   66  163 1
   167   67  164 1
   168   67  165 1
   169   68  166 1
   170   68  167 1
   171   69  168 1
   172   69  169 1
   173   70  170 1
   174   71  171 1
   175   71  172 1
   176   71  173 1
   177   72  174 1
   178   72  175 1
   179   73  176 1
   180   73  177 1
   181   73  178 1
   182   74  179 1
   183   74  180 1
   184   76  181 1
   185   77  182 1
   186   78  183 1
   187   79  184 1
   188   80  185 1
   189   81  186 1
   190   81  187 1
   191   84  188 1
   192   85  189 1
   193   86  190 1
   194   87  191 1
   195   89  192 1
   196   91  193 1
   197   91  194 1
   198   94  195 1
   199   94  196 1
   200   95  197 1
   201   95  198 1
   202   96  199 1
   203   96  200 1
   204   97  201 1
   205   97  202 1
   206  100  203 1
@<TRIPOS>SUBSTRUCTURE
     1 <0>         1 GROUP 0 A     ****
@<TRIPOS>MOLECULE
MiniDrugBank_245
   58    60     1     0     0
SMALL
NO_CHARGES

@<TRIPOS>ATOM
      1 O1          0.0000   -4.9500    0.0000 O         1 <0>        0.00000
      2 C1         -0.7145   -5.3625    0.0000 C         1 <0>        0.00000
      3 O2         -1.4289   -4.9500    0.0000 OH        1 <0>        0.00000
      4 C2         -0.7145   -6.1875    0.0000 CT        1 <0>        0.00000
      5 N1         -1.4289   -6.6000    0.0000 N         1 <0>        0.00000
      6 C3         -2.1434   -6.1875    0.0000 C         1 <0>        0.00000
      7 O3         -2.1434   -5.3625    0.0000 O         1 <0>        0.00000
      8 C4         -2.8579   -6.6000    0.0000 CA        1 <0>        0.00000
      9 C5         -2.8579   -7.4250    0.0000 CA        1 <0>        0.00000
     10 C6         -3.5724   -7.8375    0.0000 CA        1 <0>        0.00000
     11 C7         -4.2868   -7.4250    0.0000 CA        1 <0>        0.00000
     12 C8         -4.2868   -6.6000    0.0000 CA        1 <0>        0.00000
     13 C9         -3.5724   -6.1875    0.0000 CA        1 <0>        0.00000
     14 C10        -5.0013   -7.8375    0.0000 CT        1 <0>        0.00000
     15 C11        -5.0013   -8.6625    0.0000 CT        1 <0>        0.00000
     16 C12        -5.7158   -9.0750    0.0000 C2        1 <0>        0.00000
     17 C13        -6.4302   -9.4875    0.0000 C2        1 <0>        0.00000
     18 C14        -5.7158   -7.4250    0.0000 CT        1 <0>        0.00000
     19 C15        -6.4302   -7.8375    0.0000 CA        1 <0>        0.00000
     20 N2         -7.1447   -7.4250    0.0000 NC        1 <0>        0.00000
     21 C16        -7.8592   -7.8375    0.0000 CB        1 <0>        0.00000
     22 C17        -7.8592   -8.6625    0.0000 CB        1 <0>        0.00000
     23 N3         -7.1447   -9.0750    0.0000 NC        1 <0>        0.00000
     24 C18        -6.4302   -8.6625    0.0000 CA        1 <0>        0.00000
     25 N4         -8.5737   -9.0750    0.0000 NC        1 <0>        0.00000
     26 C19        -9.2881   -8.6625    0.0000 CA        1 <0>        0.00000
     27 N5         -9.2881   -7.8375    0.0000 NC        1 <0>        0.00000
     28 C20        -8.5737   -7.4250    0.0000 CA        1 <0>        0.00000
     29 N6         -8.5737   -6.6000    0.0000 N2        1 <0>        0.00000
     30 N7        -10.0026   -9.0750    0.0000 N2        1 <0>        0.00000
     31 C21         0.0000   -6.6000    0.0000 CT        1 <0>        0.00000
     32 C22         0.7145   -6.1875    0.0000 CT        1 <0>        0.00000
     33 C23         1.4289   -6.6000    0.0000 C         1 <0>        0.00000
     34 O4          2.1434   -6.1875    0.0000 O         1 <0>        0.00000
     35 O5          1.4289   -7.4250    0.0000 OH        1 <0>        0.00000
     36 H1         -2.1513   -5.5669    0.0000 HO        1 <0>        0.00000
     37 H2         -0.7145   -6.1875   -1.1000 H1        1 <0>        0.00000
     38 H3         -1.4289   -7.6000    0.0000 H         1 <0>        0.00000
     39 H4         -1.9226   -7.9650    0.0000 HA        1 <0>        0.00000
     40 H5         -3.5724   -8.9175    0.0000 HA        1 <0>        0.00000
     41 H6         -5.2221   -6.0600    0.0000 HA        1 <0>        0.00000
     42 H7         -3.5724   -5.1075    0.0000 HA        1 <0>        0.00000
     43 H8         -5.0013   -7.8375    1.1000 HC        1 <0>        0.00000
     44 H9         -4.4513   -8.9800   -0.8981 HC        1 <0>        0.00000
     45 H10        -4.4513   -8.9800    0.8981 HC        1 <0>        0.00000
     46 H11        -7.3482  -10.0175    0.0000 HC        1 <0>        0.00000
     47 H12        -5.7158   -6.7899    0.8981 HC        1 <0>        0.00000
     48 H13        -5.7158   -6.7899   -0.8981 HC        1 <0>        0.00000
     49 H14        -5.4949   -9.2025    0.0000 H4        1 <0>        0.00000
     50 H15        -9.5163   -6.2662    0.0000 H         1 <0>        0.00000
     51 H16        -8.1022   -6.2668    0.8165 H         1 <0>        0.00000
     52 H17        -9.8204  -10.0583    0.0000 H         1 <0>        0.00000
     53 H18       -10.5269   -8.8333    0.8165 H         1 <0>        0.00000
     54 H19         0.0000   -7.2351    0.8981 HC        1 <0>        0.00000
     55 H20         0.0000   -7.2351   -0.8981 HC        1 <0>        0.00000
     56 H21         0.7145   -5.5524   -0.8981 HC        1 <0>        0.00000
     57 H22         0.7145   -5.5524    0.8981 HC        1 <0>        0.00000
     58 H23         2.3244   -7.7421    0.0000 HO        1 <0>        0.00000
@<TRIPOS>BOND
     1    1    2 2
     2    2    3 1
     3    2    4 1
     4    4    5 1
     5    5    6 am
     6    6    7 2
     7    6    8 1
     8    8    9 ar
     9    9   10 ar
    10   10   11 ar
    11   11   12 ar
    12   12   13 ar
    13    8   13 ar
    14   11   14 1
    15   14   15 1
    16   15   16 1
    17   16   17 3
    18   14   18 1
    19   18   19 1
    20   19   20 ar
    21   20   21 ar
    22   21   22 ar
    23   22   23 ar
    24   23   24 ar
    25   19   24 ar
    26   22   25 ar
    27   25   26 ar
    28   26   27 ar
    29   27   28 ar
    30   21   28 ar
    31   28   29 1
    32   26   30 1
    33    4   31 1
    34   31   32 1
    35   32   33 1
    36   33   34 2
    37   33   35 1
    38    3   36 1
    39    4   37 1
    40    5   38 1
    41    9   39 1
    42   10   40 1
    43   12   41 1
    44   13   42 1
    45   14   43 1
    46   15   44 1
    47   15   45 1
    48   17   46 1
    49   18   47 1
    50   18   48 1
    51   24   49 1
    52   29   50 1
    53   29   51 1
    54   30   52 1
    55   30   53 1
    56   31   54 1
    57   31   55 1
    58   32   56 1
    59   32   57 1
    60   35   58 1
@<TRIPOS>SUBSTRUCTURE
     1 <0>         1 GROUP 0 A     ****
@<TRIPOS>MOLECULE
MiniDrugBank_246
   43    43     1     0     0
SMALL
NO_CHARGES

@<TRIPOS>ATOM
      1 O1          0.8553   -1.6285   -2.2582 OH        1 <0>        0.00000
      2 N1          1.9081   -1.0028   -1.5378 N2        1 <0>        0.00000
      3 O2          2.8401   -0.4305   -2.1871 Ou        1 <0>        0.00000
      4 C1          1.8851   -1.0363   -0.1124 CA        1 <0>        0.00000
      5 C2          0.8066   -0.4630    0.5610 CA        1 <0>        0.00000
      6 C3          0.7638   -0.4841    1.9551 CA        1 <0>        0.00000
      7 C4          1.7997   -1.0786    2.6757 CA        1 <0>        0.00000
      8 C5          2.8783   -1.6520    2.0022 CA        1 <0>        0.00000
      9 C6          2.9210   -1.6309    0.6081 CA        1 <0>        0.00000
     10 N2          4.0218   -2.2164   -0.0559 N3        1 <0>        0.00000
     11 C7          3.8198   -3.3115   -0.9818 CT        1 <0>        0.00000
     12 C8          4.5564   -4.5616   -0.5572 CT        1 <0>        0.00000
     13 Br1         3.9492   -5.1616    1.1952 BR        1 <0>        0.00000
     14 C9          5.3627   -1.7186    0.1717 CT        1 <0>        0.00000
     15 C10         5.5032   -0.2620   -0.2084 CT        1 <0>        0.00000
     16 Br2         7.3204    0.3654    0.1135 BR        1 <0>        0.00000
     17 C11         1.7851   -1.1163    4.1324 C         1 <0>        0.00000
     18 O3          1.2611   -2.0704    4.7311 O         1 <0>        0.00000
     19 N3          2.4019   -0.0529    4.7988 N         1 <0>        0.00000
     20 C12         2.4904    0.0414    6.2383 CT        1 <0>        0.00000
     21 C13         3.7580   -0.6265    6.6853 C         1 <0>        0.00000
     22 O4          4.3165   -1.5625    6.1333 O         1 <0>        0.00000
     23 C14         4.3228   -0.1352    7.9880 C         1 <0>        0.00000
     24 O5          5.3099   -0.6686    8.4631 O         1 <0>        0.00000
     25 N4         -0.3372    0.1019    2.6180 N2        1 <0>        0.00000
     26 O6         -1.3965    0.7105    1.8600 OH        1 <0>        0.00000
     27 O7         -0.4626    0.1291    3.9020 Ou        1 <0>        0.00000
     28 H1          1.1189   -1.4560   -3.1778 HO        1 <0>        0.00000
     29 H2         -0.0001    0.0014   -0.0024 HA        1 <0>        0.00000
     30 H3          3.6866   -2.1157    2.5638 HA        1 <0>        0.00000
     31 H4          2.7425   -3.4725   -1.0596 H1        1 <0>        0.00000
     32 H5          4.1901   -2.9627   -1.9476 H1        1 <0>        0.00000
     33 H6          5.6369   -4.4114   -0.4812 H1        1 <0>        0.00000
     34 H7          4.3492   -5.3865   -1.2440 H1        1 <0>        0.00000
     35 H8          5.5977   -1.8962    1.2232 H1        1 <0>        0.00000
     36 H9          6.0221   -2.3358   -0.4414 H1        1 <0>        0.00000
     37 H10         4.8388    0.3912    0.3642 H1        1 <0>        0.00000
     38 H11         5.3230   -0.1206   -1.2773 H1        1 <0>        0.00000
     39 H12         2.8696    0.6683    4.2595 H         1 <0>        0.00000
     40 H13         2.4997    1.1018    6.4871 H1        1 <0>        0.00000
     41 H14         1.6251   -0.4578    6.6707 H1        1 <0>        0.00000
     42 H15         3.7783    0.7006    8.4544 H4        1 <0>        0.00000
     43 H16        -2.0037    1.0226    2.5521 HO        1 <0>        0.00000
@<TRIPOS>BOND
     1    1    2 1
     2    2    3 2
     3    2    4 1
     4    4    5 ar
     5    5    6 ar
     6    6    7 ar
     7    7    8 ar
     8    8    9 ar
     9    4    9 ar
    10    9   10 1
    11   10   11 1
    12   11   12 1
    13   12   13 1
    14   10   14 1
    15   14   15 1
    16   15   16 1
    17    7   17 1
    18   17   18 2
    19   17   19 am
    20   19   20 1
    21   20   21 1
    22   21   22 2
    23   21   23 1
    24   23   24 2
    25    6   25 1
    26   25   26 1
    27   25   27 2
    28    1   28 1
    29    5   29 1
    30    8   30 1
    31   11   31 1
    32   11   32 1
    33   12   33 1
    34   12   34 1
    35   14   35 1
    36   14   36 1
    37   15   37 1
    38   15   38 1
    39   19   39 1
    40   20   40 1
    41   20   41 1
    42   23   42 1
    43   26   43 1
@<TRIPOS>SUBSTRUCTURE
     1 <0>         1 GROUP 0 A     ****
@<TRIPOS>MOLECULE
MiniDrugBank_247
   64    63     1     0     0
SMALL
NO_CHARGES

@<TRIPOS>ATOM
      1 C1          1.3183    3.1279    1.9119 CT        1 <0>        0.00000
      2 C2          1.3085    1.8158    2.6795 CT        1 <0>        0.00000
      3 C3          0.2906    1.8413    3.8189 CT        1 <0>        0.00000
      4 C4          0.2836    0.5212    4.5879 CT        1 <0>        0.00000
      5 C5          1.6315    0.2151    5.2001 C         1 <0>        0.00000
      6 O1          2.3097   -0.7731    4.9554 O         1 <0>        0.00000
      7 O2          1.9612    1.2185    6.0666 OS        1 <0>        0.00000
      8 C6          3.2197    1.0699    6.7319 CT        1 <0>        0.00000
      9 C7          4.2979    1.7306    5.8872 CT        1 <0>        0.00000
     10 C8          5.6671    1.6054    6.5455 CT        1 <0>        0.00000
     11 O3          6.0015    0.2308    6.7072 OS        1 <0>        0.00000
     12 P1          7.5593   -0.2507    6.6767 P         1 <0>        0.00000
     13 S1          8.6580    0.5718    8.0722 Su        1 <0>        0.00000
     14 S2          7.7152   -2.1826    6.9490 SD        1 <0>        0.00000
     15 O4          8.0195    0.2343    5.1861 OS        1 <0>        0.00000
     16 C9          7.3668   -0.2646    4.0297 CT        1 <0>        0.00000
     17 C10         7.6178    0.6677    2.8596 CT        1 <0>        0.00000
     18 N1          6.9309    0.1368    1.6552 N3        1 <0>        0.00000
     19 C11         7.1620    1.0551    0.4474 CT        1 <0>        0.00000
     20 C12         5.4184    0.0319    1.8929 CT        1 <0>        0.00000
     21 C13         7.4567   -1.2605    1.2999 CT        1 <0>        0.00000
     22 O5          3.9746    3.1173    5.7609 OS        1 <0>        0.00000
     23 C14         4.3765    3.7135    4.5983 C         1 <0>        0.00000
     24 O6          4.9753    3.1663    3.6826 O         1 <0>        0.00000
     25 C15         3.9591    5.1663    4.6224 CT        1 <0>        0.00000
     26 C16         4.3754    5.9027    3.3503 CT        1 <0>        0.00000
     27 C17         3.9464    7.3687    3.3907 CT        1 <0>        0.00000
     28 C18         4.3590    8.1049    2.1262 CT        1 <0>        0.00000
     29 H1          2.0497    3.1012    1.0980 HC        1 <0>        0.00000
     30 H2          0.3336    3.3383    1.4825 HC        1 <0>        0.00000
     31 H3          1.5817    3.9551    2.5785 HC        1 <0>        0.00000
     32 H4          1.0746    0.9968    1.9892 HC        1 <0>        0.00000
     33 H5          2.3113    1.6263    3.0799 HC        1 <0>        0.00000
     34 H6         -0.7108    2.0392    3.4161 HC        1 <0>        0.00000
     35 H7          0.5229    2.6666    4.5037 HC        1 <0>        0.00000
     36 H8          0.0220   -0.2997    3.9108 HC        1 <0>        0.00000
     37 H9         -0.4556    0.5682    5.3955 HC        1 <0>        0.00000
     38 H10         3.1312    1.5439    7.7125 H1        1 <0>        0.00000
     39 H11         3.4066    0.0005    6.8520 H1        1 <0>        0.00000
     40 H12         4.3063    1.3151    4.8733 H1        1 <0>        0.00000
     41 H13         5.6839    2.0764    7.5333 H1        1 <0>        0.00000
     42 H14         6.4463    2.0587    5.9246 H1        1 <0>        0.00000
     43 H15         6.2928   -0.3139    4.2394 H1        1 <0>        0.00000
     44 H16         7.7292   -1.2777    3.8221 H1        1 <0>        0.00000
     45 H17         8.6796    0.7318    2.6058 HP        1 <0>        0.00000
     46 H18         7.2087    1.6652    3.0400 HP        1 <0>        0.00000
     47 H19         6.6298    0.5861   -0.3601 HP        1 <0>        0.00000
     48 H20         6.7523    2.0045    0.7414 HP        1 <0>        0.00000
     49 H21         8.2284    1.0680    0.3120 HP        1 <0>        0.00000
     50 H22         5.0220   -0.3573    0.9726 HP        1 <0>        0.00000
     51 H23         5.3168   -0.6402    2.7257 HP        1 <0>        0.00000
     52 H24         5.1035    1.0371    2.1079 HP        1 <0>        0.00000
     53 H25         6.9015   -1.5490    0.4258 HP        1 <0>        0.00000
     54 H26         8.5071   -1.1211    1.1182 HP        1 <0>        0.00000
     55 H27         7.2440   -1.8625    2.1648 HP        1 <0>        0.00000
     56 H28         2.8696    5.2064    4.7331 HC        1 <0>        0.00000
     57 H29         4.4250    5.6411    5.4933 HC        1 <0>        0.00000
     58 H30         5.4639    5.8390    3.2263 HC        1 <0>        0.00000
     59 H31         3.9300    5.4111    2.4762 HC        1 <0>        0.00000
     60 H32         4.3960    7.8648    4.2588 HC        1 <0>        0.00000
     61 H33         2.8583    7.4355    3.5064 HC        1 <0>        0.00000
     62 H34         4.0480    9.1537    2.1634 HC        1 <0>        0.00000
     63 H35         5.4448    8.0728    1.9905 HC        1 <0>        0.00000
     64 H36         3.8935    7.6433    1.2498 HC        1 <0>        0.00000
@<TRIPOS>BOND
     1    1    2 1
     2    2    3 1
     3    3    4 1
     4    4    5 1
     5    5    6 2
     6    5    7 1
     7    7    8 1
     8    8    9 1
     9    9   10 1
    10   10   11 1
    11   11   12 1
    12   12   13 1
    13   12   14 2
    14   12   15 1
    15   15   16 1
    16   16   17 1
    17   17   18 1
    18   18   19 1
    19   18   20 1
    20   18   21 1
    21    9   22 1
    22   22   23 1
    23   23   24 2
    24   23   25 1
    25   25   26 1
    26   26   27 1
    27   27   28 1
    28    1   29 1
    29    1   30 1
    30    1   31 1
    31    2   32 1
    32    2   33 1
    33    3   34 1
    34    3   35 1
    35    4   36 1
    36    4   37 1
    37    8   38 1
    38    8   39 1
    39    9   40 1
    40   10   41 1
    41   10   42 1
    42   16   43 1
    43   16   44 1
    44   17   45 1
    45   17   46 1
    46   19   47 1
    47   19   48 1
    48   19   49 1
    49   20   50 1
    50   20   51 1
    51   20   52 1
    52   21   53 1
    53   21   54 1
    54   21   55 1
    55   25   56 1
    56   25   57 1
    57   26   58 1
    58   26   59 1
    59   27   60 1
    60   27   61 1
    61   28   62 1
    62   28   63 1
    63   28   64 1
@<TRIPOS>SUBSTRUCTURE
     1 <0>         1 GROUP 0 A     ****
@<TRIPOS>MOLECULE
MiniDrugBank_248
   35    35     1     0     0
SMALL
NO_CHARGES

@<TRIPOS>ATOM
      1 O1          2.0788   -2.1576    2.0485 O         1 <0>        0.00000
      2 N1          0.8075   -2.5985    0.1600 N         1 <0>        0.00000
      3 N2          7.6464   -4.0394   -1.8059 N3        1 <0>        0.00000
      4 N3          8.7387   -4.7204   -2.4400 N3        1 <0>        0.00000
      5 C1         -0.4553   -2.0023    0.6597 CT        1 <0>        0.00000
      6 C2          5.3848   -4.3734   -0.9644 CA        1 <0>        0.00000
      7 C3          3.1561   -3.2280    0.2619 CA        1 <0>        0.00000
      8 C4          1.9694   -2.6182    0.9152 C         1 <0>        0.00000
      9 C5          6.5759   -4.9860   -1.6206 CT        1 <0>        0.00000
     10 C6         -1.6337   -2.7497    0.0527 CT        1 <0>        0.00000
     11 C7         -0.4792   -0.5243    0.2984 CT        1 <0>        0.00000
     12 C8          4.3817   -3.7944   -1.7417 CA        1 <0>        0.00000
     13 C9          5.2735   -4.3798    0.4261 CA        1 <0>        0.00000
     14 C10         3.2674   -3.2217   -1.1285 CA        1 <0>        0.00000
     15 C11         4.1592   -3.8070    1.0392 CA        1 <0>        0.00000
     16 C12         9.9517   -3.9487   -2.2032 CT        1 <0>        0.00000
     17 H1          0.8213   -3.0070   -0.7688 H         1 <0>        0.00000
     18 H2          7.3256   -3.2811   -2.4078 H         1 <0>        0.00000
     19 H3          8.5653   -4.7769   -3.4435 H         1 <0>        0.00000
     20 H4         -0.4731   -2.1117    1.7496 H1        1 <0>        0.00000
     21 H5          6.9720   -5.8194   -1.0237 H1        1 <0>        0.00000
     22 H6          6.3255   -5.3948   -2.6091 H1        1 <0>        0.00000
     23 H7         -2.5830   -2.3319    0.4034 HC        1 <0>        0.00000
     24 H8         -1.6206   -2.6960   -1.0417 HC        1 <0>        0.00000
     25 H9         -1.6065   -3.8092    0.3303 HC        1 <0>        0.00000
     26 H10        -1.4016   -0.0525    0.6542 HC        1 <0>        0.00000
     27 H11        -0.4250   -0.3872   -0.7866 HC        1 <0>        0.00000
     28 H12         0.3612    0.0125    0.7525 HC        1 <0>        0.00000
     29 H13         4.4600   -3.7849   -2.8257 HA        1 <0>        0.00000
     30 H14         6.0504   -4.8285    1.0394 HA        1 <0>        0.00000
     31 H15         2.4916   -2.7733   -1.7436 HA        1 <0>        0.00000
     32 H16         4.0824   -3.8176    2.1233 HA        1 <0>        0.00000
     33 H17        10.7909   -4.4503   -2.6771 H1        1 <0>        0.00000
     34 H18        10.1252   -3.8735   -1.1331 H1        1 <0>        0.00000
     35 H19         9.8318   -2.9545   -2.6253 H1        1 <0>        0.00000
@<TRIPOS>BOND
     1    1    8 2
     2    2    5 1
     3    2    8 am
     4    3    4 1
     5    3    9 1
     6    4   16 1
     7    5   10 1
     8    5   11 1
     9    6    9 1
    10    6   12 ar
    11    6   13 ar
    12    7    8 1
    13    7   14 ar
    14    7   15 ar
    15   12   14 ar
    16   13   15 ar
    17    2   17 1
    18    3   18 1
    19    4   19 1
    20    5   20 1
    21    9   21 1
    22    9   22 1
    23   10   23 1
    24   10   24 1
    25   10   25 1
    26   11   26 1
    27   11   27 1
    28   11   28 1
    29   12   29 1
    30   13   30 1
    31   14   31 1
    32   15   32 1
    33   16   33 1
    34   16   34 1
    35   16   35 1
@<TRIPOS>SUBSTRUCTURE
     1 <0>         1 GROUP 0 A     ****
@<TRIPOS>MOLECULE
MiniDrugBank_249
   40    43     1     0     0
SMALL
NO_CHARGES

@<TRIPOS>ATOM
      1 N1          1.6281    0.4099    8.5110 NB        1 <0>        0.00000
      2 C1          1.5006    1.5754    9.2313 CB        1 <0>        0.00000
      3 C2          0.1730    1.7939    9.5882 CB        1 <0>        0.00000
      4 N2         -0.5023    0.7229    9.0614 NA        1 <0>        0.00000
      5 C3          0.4095   -0.0750    8.4281 CR        1 <0>        0.00000
      6 C4          2.4772    2.5067    9.6228 CA        1 <0>        0.00000
      7 C5          2.0749    3.6261   10.3621 CA        1 <0>        0.00000
      8 C6          0.7346    3.8179   10.7053 CA        1 <0>        0.00000
      9 C7         -0.2507    2.9012   10.3238 CA        1 <0>        0.00000
     10 N3         -0.0333   -1.2017    7.8278 N2        1 <0>        0.00000
     11 C8          0.8141   -2.1554    7.1113 CT        1 <0>        0.00000
     12 C9          0.0073   -3.2875    6.5699 CW        1 <0>        0.00000
     13 S1         -0.6633   -3.1664    4.9989 S         1 <0>        0.00000
     14 C10        -1.3691   -4.7217    5.1214 CW        1 <0>        0.00000
     15 C11        -1.0983   -5.3183    6.3333 CC        1 <0>        0.00000
     16 C12        -0.3010   -4.4873    7.1724 CC        1 <0>        0.00000
     17 C13        -2.1715   -5.3400    4.0488 CC        1 <0>        0.00000
     18 N4         -2.4075   -4.6879    2.8543 NB        1 <0>        0.00000
     19 C14        -3.1436   -5.4604    2.0865 CR        1 <0>        0.00000
     20 S2         -3.5887   -6.9843    2.7380 S         1 <0>        0.00000
     21 C15        -2.7297   -6.5953    4.1705 CW        1 <0>        0.00000
     22 N5         -3.5762   -5.1568    0.8367 NB        1 <0>        0.00000
     23 C16        -2.8579   -4.3579    0.0486 C         1 <0>        0.00000
     24 N6         -3.2602   -4.0255   -1.2235 N         1 <0>        0.00000
     25 N7         -1.6552   -3.7714    0.3788 N         1 <0>        0.00000
     26 H1         -1.4969    0.5530    9.1281 H         1 <0>        0.00000
     27 H2          3.5207    2.3674    9.3592 HA        1 <0>        0.00000
     28 H3          2.8175    4.3571   10.6714 HA        1 <0>        0.00000
     29 H4          0.4519    4.6965   11.2801 HA        1 <0>        0.00000
     30 H5         -1.2918    3.0473   10.5882 HA        1 <0>        0.00000
     31 H6         -1.0360   -1.4383    7.8555 H         1 <0>        0.00000
     32 H7          1.5655   -2.4974    7.8195 H1        1 <0>        0.00000
     33 H8          1.3138   -1.5944    6.3251 H1        1 <0>        0.00000
     34 H9         -1.4513   -6.3027    6.6153 HA        1 <0>        0.00000
     35 H10         0.0258   -4.7601    8.1679 HA        1 <0>        0.00000
     36 H11        -2.6812   -7.2857    5.0013 H4        1 <0>        0.00000
     37 H12        -4.1285   -4.3816   -1.6079 H         1 <0>        0.00000
     38 H13        -2.7045   -3.4155   -1.8130 H         1 <0>        0.00000
     39 H14        -1.1662   -3.1743   -0.2793 H         1 <0>        0.00000
     40 H15        -1.2152   -3.9147    1.2810 H         1 <0>        0.00000
@<TRIPOS>BOND
     1    1    2 1
     2    1    5 2
     3    2    3 ar
     4    2    6 ar
     5    3    4 1
     6    3    9 ar
     7    4    5 1
     8    5   10 1
     9    6    7 ar
    10    7    8 ar
    11    8    9 ar
    12   10   11 1
    13   11   12 1
    14   12   13 1
    15   12   16 2
    16   13   14 1
    17   14   15 2
    18   14   17 1
    19   15   16 1
    20   17   18 1
    21   17   21 2
    22   18   19 2
    23   19   20 1
    24   19   22 1
    25   20   21 1
    26   22   23 2
    27   23   24 1
    28   23   25 1
    29    4   26 1
    30    6   27 1
    31    7   28 1
    32    8   29 1
    33    9   30 1
    34   10   31 1
    35   11   32 1
    36   11   33 1
    37   15   34 1
    38   16   35 1
    39   21   36 1
    40   24   37 1
    41   24   38 1
    42   25   39 1
    43   25   40 1
@<TRIPOS>SUBSTRUCTURE
     1 <0>         1 GROUP 0 A     ****
@<TRIPOS>MOLECULE
MiniDrugBank_250
   29    30     1     0     0
SMALL
NO_CHARGES

@<TRIPOS>ATOM
      1 C1          1.8978    3.2475   -3.5755 CW        1 <0>        0.00000
      2 C2          0.6733   -0.5455   -0.6963 CT        1 <0>        0.00000
      3 C3          0.9215   -1.8446    0.0144 CW        1 <0>        0.00000
      4 C4          2.0266   -2.6637   -0.0580 CC        1 <0>        0.00000
      5 C5          1.8933   -3.8167    0.7685 CC        1 <0>        0.00000
      6 C6          0.6913   -3.8346    1.4414 CW        1 <0>        0.00000
      7 O1          4.3742    2.8422   -4.2654 O2        1 <0>        0.00000
      8 O2          2.8095    3.9178   -5.9215 O2        1 <0>        0.00000
      9 N1          3.6048    5.2721   -3.8793 N3        1 <0>        0.00000
     10 S1          3.2708    3.7413   -4.5554 SO        1 <0>        0.00000
     11 C7          1.2142    3.8463   -2.5402 CC        1 <0>        0.00000
     12 C8          0.1490    3.0311   -2.0597 CC        1 <0>        0.00000
     13 C9          0.0588    1.8401   -2.7464 CW        1 <0>        0.00000
     14 S2          1.2552    1.7086   -3.9644 S         1 <0>        0.00000
     15 S3         -1.0264    0.4504   -2.6217 SO        1 <0>        0.00000
     16 O3         -2.0433    0.7639   -1.6360 O2        1 <0>        0.00000
     17 O4         -1.4075    0.0888   -3.9736 O2        1 <0>        0.00000
     18 N2          0.0131   -0.7460   -1.9942 N3        1 <0>        0.00000
     19 S4         -0.2702   -2.4657    1.0756 S         1 <0>        0.00000
     20 H1          0.0369    0.1099   -0.0918 H1        1 <0>        0.00000
     21 H2          1.6118   -0.0110   -0.8772 H1        1 <0>        0.00000
     22 H3          2.8923   -2.4501   -0.6722 HA        1 <0>        0.00000
     23 H4          2.6409   -4.5930    0.8658 HA        1 <0>        0.00000
     24 H5          0.3320   -4.5860    2.1303 H4        1 <0>        0.00000
     25 H6          2.9435    6.0351   -4.0688 H         1 <0>        0.00000
     26 H7          4.0143    5.3020   -2.9377 H         1 <0>        0.00000
     27 H8          1.4651    4.8227   -2.1455 HA        1 <0>        0.00000
     28 H9         -0.5161    3.3060   -1.2511 HA        1 <0>        0.00000
     29 H10         0.4880   -1.3801   -2.6482 H         1 <0>        0.00000
@<TRIPOS>BOND
     1    1   10 1
     2    1   11 2
     3    1   14 1
     4    2    3 1
     5    2   18 1
     6    3    4 2
     7    3   19 1
     8    4    5 1
     9    5    6 2
    10    6   19 1
    11    7   10 2
    12    8   10 2
    13    9   10 1
    14   11   12 1
    15   12   13 2
    16   13   14 1
    17   13   15 1
    18   15   16 2
    19   15   17 2
    20   15   18 1
    21    2   20 1
    22    2   21 1
    23    4   22 1
    24    5   23 1
    25    6   24 1
    26    9   25 1
    27    9   26 1
    28   11   27 1
    29   12   28 1
    30   18   29 1
@<TRIPOS>SUBSTRUCTURE
     1 <0>         1 GROUP 0 A     ****
@<TRIPOS>MOLECULE
MiniDrugBank_251
   56    60     1     0     0
SMALL
NO_CHARGES

@<TRIPOS>ATOM
      1 O1          1.0787   -0.3753   -3.0763 OH        1 <0>        0.00000
      2 O2         -0.2216    0.2553   -3.2340 OS        1 <0>        0.00000
      3 C1         -0.8574    0.1192   -1.9735 CT        1 <0>        0.00000
      4 C2         -2.3584    0.2856   -2.1626 CT        1 <0>        0.00000
      5 C3         -2.9195   -0.7485   -3.1010 CA        1 <0>        0.00000
      6 C4         -2.9806   -0.4882   -4.4699 CA        1 <0>        0.00000
      7 C5         -3.5016   -1.4463   -5.3395 CA        1 <0>        0.00000
      8 C6         -3.9614   -2.6649   -4.8401 CA        1 <0>        0.00000
      9 I1         -4.7389   -4.0917   -6.1348 I         1 <0>        0.00000
     10 C7         -3.9002   -2.9253   -3.4711 CA        1 <0>        0.00000
     11 C8         -3.3792   -1.9671   -2.6016 CA        1 <0>        0.00000
     12 N1         -0.6033   -1.1418   -1.2301 NB        1 <0>        0.00000
     13 C9         -0.0391   -0.7724   -0.1222 CR        1 <0>        0.00000
     14 C10         0.3755   -1.7430    0.9643 CT        1 <0>        0.00000
     15 C11        -0.8527   -2.4323    1.5462 CT        1 <0>        0.00000
     16 C12        -0.4960   -3.7277    2.2246 CA        1 <0>        0.00000
     17 C13        -0.4925   -4.9181    1.4976 CA        1 <0>        0.00000
     18 C14        -0.1617   -6.1184    2.1265 CA        1 <0>        0.00000
     19 C15         0.1657   -6.1283    3.4824 CA        1 <0>        0.00000
     20 C16         0.1623   -4.9379    4.2094 CA        1 <0>        0.00000
     21 C17        -0.1685   -3.7376    3.5805 CA        1 <0>        0.00000
     22 N2          1.0864   -1.0526    2.0311 N         1 <0>        0.00000
     23 C18         1.2353    0.3185    2.1055 CM        1 <0>        0.00000
     24 C19         0.7739    1.1155    1.1261 CM        1 <0>        0.00000
     25 N3          0.1632    0.5533    0.0385 N         1 <0>        0.00000
     26 C20        -0.3111    1.2084   -1.0638 C         1 <0>        0.00000
     27 O3         -0.2973    2.4031   -1.3171 O         1 <0>        0.00000
     28 C21         1.9065    0.8833    3.2913 CA        1 <0>        0.00000
     29 C22         1.3741    0.6674    4.5623 CA        1 <0>        0.00000
     30 C23         2.0078    1.2019    5.6840 CA        1 <0>        0.00000
     31 C24         3.1742    1.9523    5.5347 CA        1 <0>        0.00000
     32 O4          3.7928    2.4740    6.6293 OH        1 <0>        0.00000
     33 C25         3.7067    2.1682    4.2637 CA        1 <0>        0.00000
     34 C26         3.0729    1.6337    3.1420 CA        1 <0>        0.00000
     35 H1          0.7353   -1.2564   -2.8490 HO        1 <0>        0.00000
     36 H2         -2.5707    1.2897   -2.5460 HC        1 <0>        0.00000
     37 H3         -2.8604    0.2174   -1.1911 HC        1 <0>        0.00000
     38 H4         -2.6260    0.4591   -4.8677 HA        1 <0>        0.00000
     39 H5         -3.5403   -1.2227   -6.4027 HA        1 <0>        0.00000
     40 H6         -4.2549   -3.8674   -3.0606 HA        1 <0>        0.00000
     41 H7         -3.3345   -2.1787   -1.5365 HA        1 <0>        0.00000
     42 H8          1.0368   -2.4921    0.5161 H1        1 <0>        0.00000
     43 H9         -1.5814   -2.6189    0.7494 HC        1 <0>        0.00000
     44 H10        -1.3462   -1.7631    2.2600 HC        1 <0>        0.00000
     45 H11        -0.7466   -4.9205    0.4409 HA        1 <0>        0.00000
     46 H12        -0.1585   -7.0452    1.5603 HA        1 <0>        0.00000
     47 H13         0.4231   -7.0631    3.9718 HA        1 <0>        0.00000
     48 H14         0.4170   -4.9456    5.2651 HA        1 <0>        0.00000
     49 H15        -0.1682   -2.8147    4.1544 HA        1 <0>        0.00000
     50 H16         1.4647   -1.6037    2.7951 H         1 <0>        0.00000
     51 H17         0.8726    2.1950    1.1356 H4        1 <0>        0.00000
     52 H18         0.4650    0.0853    4.6938 HA        1 <0>        0.00000
     53 H19         1.5872    1.0307    6.6713 HA        1 <0>        0.00000
     54 H20         3.3055    2.2387    7.4349 HO        1 <0>        0.00000
     55 H21         4.6145    2.7528    4.1410 HA        1 <0>        0.00000
     56 H22         3.5004    1.8113    2.1582 HA        1 <0>        0.00000
@<TRIPOS>BOND
     1    1    2 1
     2    2    3 1
     3    3    4 1
     4    4    5 1
     5    5    6 ar
     6    6    7 ar
     7    7    8 ar
     8    8    9 1
     9    8   10 ar
    10   10   11 ar
    11    5   11 ar
    12    3   12 1
    13   12   13 2
    14   13   14 1
    15   14   15 1
    16   15   16 1
    17   16   17 ar
    18   17   18 ar
    19   18   19 ar
    20   19   20 ar
    21   20   21 ar
    22   16   21 ar
    23   14   22 1
    24   22   23 1
    25   23   24 2
    26   24   25 1
    27   13   25 1
    28   25   26 am
    29    3   26 1
    30   26   27 2
    31   23   28 1
    32   28   29 ar
    33   29   30 ar
    34   30   31 ar
    35   31   32 1
    36   31   33 ar
    37   33   34 ar
    38   28   34 ar
    39    1   35 1
    40    4   36 1
    41    4   37 1
    42    6   38 1
    43    7   39 1
    44   10   40 1
    45   11   41 1
    46   14   42 1
    47   15   43 1
    48   15   44 1
    49   17   45 1
    50   18   46 1
    51   19   47 1
    52   20   48 1
    53   21   49 1
    54   22   50 1
    55   24   51 1
    56   29   52 1
    57   30   53 1
    58   32   54 1
    59   33   55 1
    60   34   56 1
@<TRIPOS>SUBSTRUCTURE
     1 <0>         1 GROUP 0 A     ****
@<TRIPOS>MOLECULE
MiniDrugBank_252
   38    37     1     0     0
SMALL
NO_CHARGES

@<TRIPOS>ATOM
      1 C1         -2.3627   -6.8209   -2.8004 C         1 <0>        0.00000
      2 O1         -1.2742   -7.1918   -3.2174 O         1 <0>        0.00000
      3 O2         -3.4722   -7.6052   -2.8226 OH        1 <0>        0.00000
      4 C2         -2.6563   -5.4667   -2.1959 CT        1 <0>        0.00000
      5 C3         -1.4130   -4.5787   -2.1576 CT        1 <0>        0.00000
      6 C4         -1.6720   -3.1970   -1.5510 CT        1 <0>        0.00000
      7 C5         -0.4593   -2.2626   -1.4869 CT        1 <0>        0.00000
      8 C6         -0.7168   -0.8800   -0.8804 CT        1 <0>        0.00000
      9 C7          0.5286    0.0081   -0.8426 CT        1 <0>        0.00000
     10 C8          0.2157    1.3754   -0.2282 CT        1 <0>        0.00000
     11 C9          1.4615    2.2633   -0.1906 CT        1 <0>        0.00000
     12 C10         1.2065    3.6463    0.4156 CT        1 <0>        0.00000
     13 C11         2.4519    4.5343    0.4533 CT        1 <0>        0.00000
     14 C12         2.1338    5.8893    1.0642 CT        1 <0>        0.00000
     15 Br1         3.7386    6.9912    1.0962 BR        1 <0>        0.00000
     16 H1         -4.2815   -7.1872   -2.4578 HO        1 <0>        0.00000
     17 H2         -3.4324   -4.9838   -2.8000 HC        1 <0>        0.00000
     18 H3         -3.0373   -5.6305   -1.1827 HC        1 <0>        0.00000
     19 H4         -0.6072   -5.0864   -1.6146 HC        1 <0>        0.00000
     20 H5         -1.0406   -4.4368   -3.1806 HC        1 <0>        0.00000
     21 H6         -2.0603   -3.3252   -0.5326 HC        1 <0>        0.00000
     22 H7         -2.4754   -2.7115   -2.1176 HC        1 <0>        0.00000
     23 H8          0.3280   -2.7617   -0.9077 HC        1 <0>        0.00000
     24 H9         -0.0499   -2.1303   -2.4955 HC        1 <0>        0.00000
     25 H10        -1.1324   -0.9821    0.1286 HC        1 <0>        0.00000
     26 H11        -1.4899   -0.3856   -1.4820 HC        1 <0>        0.00000
     27 H12         0.9149    0.1429   -1.8601 HC        1 <0>        0.00000
     28 H13         1.3174   -0.4756   -0.2558 HC        1 <0>        0.00000
     29 H14        -0.1707    1.2399    0.7892 HC        1 <0>        0.00000
     30 H15        -0.5730    1.8595   -0.8148 HC        1 <0>        0.00000
     31 H16         1.8673    2.3749   -1.2034 HC        1 <0>        0.00000
     32 H17         2.2368    1.7672    0.4067 HC        1 <0>        0.00000
     33 H18         0.4086    4.1510   -0.1429 HC        1 <0>        0.00000
     34 H19         0.8356    3.5067    1.4387 HC        1 <0>        0.00000
     35 H20         3.2397    4.0378    1.0335 HC        1 <0>        0.00000
     36 H21         2.8438    4.6740   -0.5608 HC        1 <0>        0.00000
     37 H22         1.3896    6.4375    0.4802 H1        1 <0>        0.00000
     38 H23         1.7947    5.8024    2.1001 H1        1 <0>        0.00000
@<TRIPOS>BOND
     1    1    2 2
     2    1    3 1
     3    1    4 1
     4    4    5 1
     5    5    6 1
     6    6    7 1
     7    7    8 1
     8    8    9 1
     9    9   10 1
    10   10   11 1
    11   11   12 1
    12   12   13 1
    13   13   14 1
    14   14   15 1
    15    3   16 1
    16    4   17 1
    17    4   18 1
    18    5   19 1
    19    5   20 1
    20    6   21 1
    21    6   22 1
    22    7   23 1
    23    7   24 1
    24    8   25 1
    25    8   26 1
    26    9   27 1
    27    9   28 1
    28   10   29 1
    29   10   30 1
    30   11   31 1
    31   11   32 1
    32   12   33 1
    33   12   34 1
    34   13   35 1
    35   13   36 1
    36   14   37 1
    37   14   38 1
@<TRIPOS>SUBSTRUCTURE
     1 <0>         1 GROUP 0 A     ****
@<TRIPOS>MOLECULE
MiniDrugBank_253
   36    36     1     0     0
SMALL
NO_CHARGES

@<TRIPOS>ATOM
      1 C1          4.1357    1.6287   -2.8233 CJ        1 <0>        0.00000
      2 C2          4.7590    0.2642   -2.7656 CJ        1 <0>        0.00000
      3 C3          3.3523    0.4259   -3.2735 CJ        1 <0>        0.00000
      4 N1          0.2581    1.6713    0.0856 N3        1 <0>        0.00000
      5 C4         -0.0255    0.3147   -0.3909 CT        1 <0>        0.00000
      6 C5         -0.1995    0.2708   -1.9384 CT        1 <0>        0.00000
      7 C6          1.0322    0.7392   -2.7451 CT        1 <0>        0.00000
      8 N2          2.2259   -0.0590   -2.4889 N3        1 <0>        0.00000
      9 O1         -0.5042   -1.0843   -2.2906 OH        1 <0>        0.00000
     10 O2         -1.3145    1.1009   -2.2828 OH        1 <0>        0.00000
     11 C7         -1.2723   -0.2306    0.3488 CT        1 <0>        0.00000
     12 C8         -1.1475   -0.3184    1.8779 CT        1 <0>        0.00000
     13 C9         -2.4020   -0.8619    2.5629 CT        1 <0>        0.00000
     14 C10        -2.2249   -0.9278    4.0723 CT        1 <0>        0.00000
     15 H1          0.8210   -0.3278   -0.1241 H1        1 <0>        0.00000
     16 H2          3.8718    2.1007   -1.8847 HC        1 <0>        0.00000
     17 H3          4.4906    2.3131   -3.5842 HC        1 <0>        0.00000
     18 H4          5.5323    0.0321   -3.4878 HC        1 <0>        0.00000
     19 H5          4.9126   -0.1773   -1.7884 HC        1 <0>        0.00000
     20 H6          3.2105    0.3172   -4.3441 H1        1 <0>        0.00000
     21 H7         -0.5074    2.3084    0.2412 H         1 <0>        0.00000
     22 H8          1.2054    2.0149    0.0569 H         1 <0>        0.00000
     23 H9          0.8083    0.6738   -3.8171 H1        1 <0>        0.00000
     24 H10         1.2432    1.7968   -2.5489 H1        1 <0>        0.00000
     25 H11         2.0371   -1.0297   -2.7348 H         1 <0>        0.00000
     26 H12        -0.6163   -1.1310   -3.2546 HX        1 <0>        0.00000
     27 H13        -1.4259    1.0758   -3.2478 HX        1 <0>        0.00000
     28 H14        -1.5125   -1.2316   -0.0311 HC        1 <0>        0.00000
     29 H15        -2.1424    0.3996    0.1226 HC        1 <0>        0.00000
     30 H16        -0.2795   -0.9289    2.1532 HC        1 <0>        0.00000
     31 H17        -0.9449    0.6917    2.2562 HC        1 <0>        0.00000
     32 H18        -2.6322   -1.8674    2.1954 HC        1 <0>        0.00000
     33 H19        -3.2613   -0.2227    2.3296 HC        1 <0>        0.00000
     34 H20        -3.1322   -1.3187    4.5433 HC        1 <0>        0.00000
     35 H21        -2.0276    0.0653    4.4885 HC        1 <0>        0.00000
     36 H22        -1.3919   -1.5853    4.3410 HC        1 <0>        0.00000
@<TRIPOS>BOND
     1    1    2 1
     2    1    3 1
     3    2    3 1
     4    3    8 1
     5    4    5 1
     6    5    6 1
     7    5   11 1
     8    5   15 1
     9    6    7 1
    10    6    9 1
    11    6   10 1
    12    7    8 1
    13   11   12 1
    14   12   13 1
    15   13   14 1
    16    1   16 1
    17    1   17 1
    18    2   18 1
    19    2   19 1
    20    3   20 1
    21    4   21 1
    22    4   22 1
    23    7   23 1
    24    7   24 1
    25    8   25 1
    26    9   26 1
    27   10   27 1
    28   11   28 1
    29   11   29 1
    30   12   30 1
    31   12   31 1
    32   13   32 1
    33   13   33 1
    34   14   34 1
    35   14   35 1
    36   14   36 1
@<TRIPOS>SUBSTRUCTURE
     1 <0>         1 GROUP 0 A     ****
@<TRIPOS>MOLECULE
MiniDrugBank_254
   53    54     1     0     0
SMALL
NO_CHARGES

@<TRIPOS>ATOM
      1 C1         -0.7179   -3.5654    4.9222 CA        1 <0>        0.00000
      2 C2         -1.8586   -4.2069    5.4047 CA        1 <0>        0.00000
      3 C3         -1.7408   -5.2064    6.3706 CA        1 <0>        0.00000
      4 C4         -0.4822   -5.5644    6.8538 CA        1 <0>        0.00000
      5 C5          0.6585   -4.9229    6.3713 CA        1 <0>        0.00000
      6 C6          0.5407   -3.9235    5.4054 CA        1 <0>        0.00000
      7 P1         -0.8680   -2.2910    3.6909 P         1 <0>        0.00000
      8 O1         -2.0461   -2.4500    2.7582 O         1 <0>        0.00000
      9 C7          0.6472   -2.3803    2.7012 CT        1 <0>        0.00000
     10 N1         -0.7917   -0.8157    4.4835 N3        1 <0>        0.00000
     11 C8          0.4351   -0.5382    5.2408 CT        1 <0>        0.00000
     12 C9          1.5269   -0.0831    4.3346 CA        1 <0>        0.00000
     13 C10         2.8573   -0.3533    4.6547 CA        1 <0>        0.00000
     14 C11         3.8792    0.0727    3.8062 CA        1 <0>        0.00000
     15 C12         3.5706    0.7688    2.6374 CA        1 <0>        0.00000
     16 C13         2.2401    1.0390    2.3173 CA        1 <0>        0.00000
     17 C14         1.2182    0.6130    3.1658 CA        1 <0>        0.00000
     18 C15        -1.9527   -0.4131    5.3099 CT        1 <0>        0.00000
     19 C16        -1.8037    1.0939    5.4479 C         1 <0>        0.00000
     20 N2         -1.6130    1.4849    6.7515 N         1 <0>        0.00000
     21 O2         -1.4429    2.8606    6.9563 OH        1 <0>        0.00000
     22 O3         -1.8326    1.8567    4.4841 O         1 <0>        0.00000
     23 C17        -3.2611   -0.7983    4.6116 CT        1 <0>        0.00000
     24 C18        -4.5449   -0.4269    5.3821 CT        1 <0>        0.00000
     25 C19        -4.5521   -1.1324    6.7415 CT        1 <0>        0.00000
     26 C20        -5.8158   -0.7853    4.6107 CT        1 <0>        0.00000
     27 H1         -1.8750   -0.8765    6.2979 H1        1 <0>        0.00000
     28 H2         -2.8408   -3.9315    5.0315 HA        1 <0>        0.00000
     29 H3         -2.6290   -5.7059    6.7463 HA        1 <0>        0.00000
     30 H4         -0.3904   -6.3426    7.6058 HA        1 <0>        0.00000
     31 H5          1.6385   -5.2017    6.7475 HA        1 <0>        0.00000
     32 H6          1.4319   -3.4267    5.0327 HA        1 <0>        0.00000
     33 H7          0.6143   -1.6193    1.9253 HC        1 <0>        0.00000
     34 H8          1.5066   -2.2099    3.3451 HC        1 <0>        0.00000
     35 H9          0.7204   -3.3649    2.2458 HC        1 <0>        0.00000
     36 H10         0.6916   -1.4593    5.7565 H1        1 <0>        0.00000
     37 H11         0.1721    0.2115    5.9812 H1        1 <0>        0.00000
     38 H12         3.1077   -0.8947    5.5632 HA        1 <0>        0.00000
     39 H13         4.9150   -0.1382    4.0551 HA        1 <0>        0.00000
     40 H14         4.3664    1.1005    1.9770 HA        1 <0>        0.00000
     41 H15         1.9997    1.5812    1.4074 HA        1 <0>        0.00000
     42 H16         0.1844    0.8274    2.9085 HA        1 <0>        0.00000
     43 H17        -1.5965    0.8199    7.5167 H         1 <0>        0.00000
     44 H18        -1.3304    2.8809    7.9218 HO        1 <0>        0.00000
     45 H19        -3.2858   -0.3233    3.6214 HC        1 <0>        0.00000
     46 H20        -3.2692   -1.8815    4.4263 HC        1 <0>        0.00000
     47 H21        -4.5513    0.6533    5.5717 HC        1 <0>        0.00000
     48 H22        -5.4568   -0.8817    7.3055 HC        1 <0>        0.00000
     49 H23        -4.5298   -2.2202    6.6159 HC        1 <0>        0.00000
     50 H24        -3.6847   -0.8430    7.3446 HC        1 <0>        0.00000
     51 H25        -6.7135   -0.5131    5.1758 HC        1 <0>        0.00000
     52 H26        -5.8608   -1.8561    4.3912 HC        1 <0>        0.00000
     53 H27        -5.8489   -0.2585    3.6508 HC        1 <0>        0.00000
@<TRIPOS>BOND
     1    1    2 ar
     2    1    6 ar
     3    1    7 1
     4    2    3 ar
     5    3    4 ar
     6    4    5 ar
     7    5    6 ar
     8    7    8 2
     9    7    9 1
    10    7   10 1
    11   10   11 1
    12   10   18 1
    13   11   12 1
    14   12   13 ar
    15   12   17 ar
    16   13   14 ar
    17   14   15 ar
    18   15   16 ar
    19   16   17 ar
    20   18   19 1
    21   18   23 1
    22   18   27 1
    23   19   20 am
    24   19   22 2
    25   20   21 1
    26   23   24 1
    27   24   25 1
    28   24   26 1
    29    2   28 1
    30    3   29 1
    31    4   30 1
    32    5   31 1
    33    6   32 1
    34    9   33 1
    35    9   34 1
    36    9   35 1
    37   11   36 1
    38   11   37 1
    39   13   38 1
    40   14   39 1
    41   15   40 1
    42   16   41 1
    43   17   42 1
    44   20   43 1
    45   21   44 1
    46   23   45 1
    47   23   46 1
    48   24   47 1
    49   25   48 1
    50   25   49 1
    51   25   50 1
    52   26   51 1
    53   26   52 1
    54   26   53 1
@<TRIPOS>SUBSTRUCTURE
     1 <0>         1 GROUP 0 A     ****
@<TRIPOS>MOLECULE
MiniDrugBank_255
   86    89     1     0     0
SMALL
NO_CHARGES

@<TRIPOS>ATOM
      1 C1         -5.4377   -3.9311    3.3181 CT        1 <0>        0.00000
      2 C2         -4.7320   -3.7298    2.0182 C         1 <0>        0.00000
      3 O1         -3.5631   -3.3618    2.0159 O         1 <0>        0.00000
      4 N1         -5.5121   -3.9916    0.9081 N         1 <0>        0.00000
      5 C3         -5.0292   -3.8591   -0.4435 CT        1 <0>        0.00000
      6 C4         -6.1545   -3.5291   -1.4309 CT        1 <0>        0.00000
      7 C5         -6.5435   -2.0711   -1.4064 CA        1 <0>        0.00000
      8 C6         -7.5419   -1.6301   -0.5380 CA        1 <0>        0.00000
      9 C7         -7.9006   -0.2823   -0.5146 CA        1 <0>        0.00000
     10 C8         -7.2606    0.6245   -1.3596 CA        1 <0>        0.00000
     11 C9         -6.2621    0.1835   -2.2280 CA        1 <0>        0.00000
     12 C10        -5.9035   -1.1643   -2.2514 CA        1 <0>        0.00000
     13 P1         -5.4363    1.3127   -3.3081 P         1 <0>        0.00000
     14 O2         -4.3711    0.4081   -4.1293 OH        1 <0>        0.00000
     15 O3         -6.5224    1.6657   -4.4584 OH        1 <0>        0.00000
     16 O4         -4.8150    2.5350   -2.6983 O         1 <0>        0.00000
     17 P2         -7.7326    2.3278   -1.3113 P         1 <0>        0.00000
     18 O5         -8.9003    2.4094   -0.1903 OH        1 <0>        0.00000
     19 O6         -6.5077    3.0825   -0.5651 OH        1 <0>        0.00000
     20 O7         -8.1194    2.9817   -2.6051 O         1 <0>        0.00000
     21 C11        -4.3669   -5.1804   -0.8172 C         1 <0>        0.00000
     22 O8         -4.7757   -6.2696   -0.4205 O         1 <0>        0.00000
     23 N2         -3.2986   -4.9991   -1.6845 N         1 <0>        0.00000
     24 C12        -2.5277   -6.0909   -2.2326 CT        1 <0>        0.00000
     25 C13        -3.1998   -6.7364   -3.4534 CT        1 <0>        0.00000
     26 C14        -3.5933   -5.7901   -4.5871 CT        1 <0>        0.00000
     27 C15        -2.4215   -5.1076   -5.2849 CT        1 <0>        0.00000
     28 C16        -1.6673   -4.1236   -4.3951 CT        1 <0>        0.00000
     29 C17        -0.6836   -4.7919   -3.4668 CA        1 <0>        0.00000
     30 C18         0.6820   -4.4780   -3.6025 CA        1 <0>        0.00000
     31 C19         1.6405   -5.0519   -2.7693 CA        1 <0>        0.00000
     32 O9          2.9514   -4.7207   -2.9373 OS        1 <0>        0.00000
     33 C20         3.5350   -5.0090   -4.2062 CT        1 <0>        0.00000
     34 C21         4.9964   -4.5646   -4.1876 CT        1 <0>        0.00000
     35 C22         5.7747   -5.3071   -3.0930 CT        1 <0>        0.00000
     36 C23         7.2515   -4.9186   -3.0894 CT        1 <0>        0.00000
     37 C24         7.8913   -5.1256   -4.4587 CT        1 <0>        0.00000
     38 C25         7.1228   -4.3924   -5.5536 CT        1 <0>        0.00000
     39 C26         5.6458   -4.7797   -5.5614 CT        1 <0>        0.00000
     40 C27         1.2494   -5.9468   -1.7828 CA        1 <0>        0.00000
     41 C28        -0.0994   -6.2661   -1.6323 CA        1 <0>        0.00000
     42 C29        -1.0832   -5.7004   -2.4672 CA        1 <0>        0.00000
     43 C30         2.2284   -6.5598   -0.8962 C         1 <0>        0.00000
     44 N3          2.7968   -7.7647   -1.2963 N         1 <0>        0.00000
     45 O10         2.5354   -6.0365    0.1883 O         1 <0>        0.00000
     46 H1         -5.9424   -3.0164    3.6686 HC        1 <0>        0.00000
     47 H2         -6.2301   -4.6939    3.2526 HC        1 <0>        0.00000
     48 H3         -4.7984   -4.2489    4.1572 HC        1 <0>        0.00000
     49 H4         -6.4717   -4.2917    1.0514 H         1 <0>        0.00000
     50 H5         -4.2696   -3.0687   -0.4277 H1        1 <0>        0.00000
     51 H6         -7.0365   -4.1503   -1.2240 HC        1 <0>        0.00000
     52 H7         -5.8542   -3.7877   -2.4550 HC        1 <0>        0.00000
     53 H8         -8.0459   -2.3289    0.1242 HA        1 <0>        0.00000
     54 H9         -8.6788    0.0563    0.1635 HA        1 <0>        0.00000
     55 H10        -5.1248   -1.5045   -2.9291 HA        1 <0>        0.00000
     56 H11        -3.9014    0.8135   -4.8891 HO        1 <0>        0.00000
     57 H12        -6.2233    2.1707   -5.2442 HO        1 <0>        0.00000
     58 H13        -9.2089    3.2944    0.0990 HO        1 <0>        0.00000
     59 H14        -6.6263    4.0208   -0.3056 HO        1 <0>        0.00000
     60 H15        -3.0461   -4.0509   -1.9471 H         1 <0>        0.00000
     61 H16        -2.5493   -6.8530   -1.4423 H1        1 <0>        0.00000
     62 H17        -2.5592   -7.5342   -3.8512 HC        1 <0>        0.00000
     63 H18        -4.1223   -7.2257   -3.1123 HC        1 <0>        0.00000
     64 H19        -4.1402   -6.3743   -5.3383 HC        1 <0>        0.00000
     65 H20        -4.2989   -5.0343   -4.2218 HC        1 <0>        0.00000
     66 H21        -1.7395   -5.8593   -5.7013 HC        1 <0>        0.00000
     67 H22        -2.8295   -4.5496   -6.1374 HC        1 <0>        0.00000
     68 H23        -1.1273   -3.4298   -5.0526 HC        1 <0>        0.00000
     69 H24        -2.3573   -3.4978   -3.8172 HC        1 <0>        0.00000
     70 H25         1.0046   -3.7768   -4.3699 HA        1 <0>        0.00000
     71 H26         3.4586   -6.0834   -4.3861 H1        1 <0>        0.00000
     72 H27         2.9756   -4.4714   -4.9746 H1        1 <0>        0.00000
     73 H28         5.0255   -3.4894   -3.9597 HC        1 <0>        0.00000
     74 H29         5.3411   -5.0857   -2.1124 HC        1 <0>        0.00000
     75 H30         5.6886   -6.3888   -3.2456 HC        1 <0>        0.00000
     76 H31         7.3511   -3.8667   -2.7947 HC        1 <0>        0.00000
     77 H32         7.7871   -5.5120   -2.3396 HC        1 <0>        0.00000
     78 H33         8.9290   -4.7738   -4.4377 HC        1 <0>        0.00000
     79 H34         7.9203   -6.1977   -4.6891 HC        1 <0>        0.00000
     80 H35         7.2151   -3.3098   -5.4024 HC        1 <0>        0.00000
     81 H36         7.5683   -4.6173   -6.5294 HC        1 <0>        0.00000
     82 H37         5.1215   -4.1872   -6.3181 HC        1 <0>        0.00000
     83 H38         5.5521   -5.8313   -5.8552 HC        1 <0>        0.00000
     84 H39        -0.3927   -6.9676   -0.8528 HA        1 <0>        0.00000
     85 H40         2.5430   -8.2298   -2.1611 H         1 <0>        0.00000
     86 H41         3.4727   -8.2493   -0.7146 H         1 <0>        0.00000
@<TRIPOS>BOND
     1    1    2 1
     2    2    3 2
     3    2    4 am
     4    4    5 1
     5    5    6 1
     6    6    7 1
     7    7    8 ar
     8    8    9 ar
     9    9   10 ar
    10   10   11 ar
    11   11   12 ar
    12    7   12 ar
    13   11   13 1
    14   13   14 1
    15   13   15 1
    16   13   16 2
    17   10   17 1
    18   17   18 1
    19   17   19 1
    20   17   20 2
    21    5   21 1
    22   21   22 2
    23   21   23 am
    24   23   24 1
    25   24   25 1
    26   25   26 1
    27   26   27 1
    28   27   28 1
    29   28   29 1
    30   29   30 ar
    31   30   31 ar
    32   31   32 1
    33   32   33 1
    34   33   34 1
    35   34   35 1
    36   35   36 1
    37   36   37 1
    38   37   38 1
    39   38   39 1
    40   34   39 1
    41   31   40 ar
    42   40   41 ar
    43   41   42 ar
    44   24   42 1
    45   29   42 ar
    46   40   43 1
    47   43   44 am
    48   43   45 2
    49    1   46 1
    50    1   47 1
    51    1   48 1
    52    4   49 1
    53    5   50 1
    54    6   51 1
    55    6   52 1
    56    8   53 1
    57    9   54 1
    58   12   55 1
    59   14   56 1
    60   15   57 1
    61   18   58 1
    62   19   59 1
    63   23   60 1
    64   24   61 1
    65   25   62 1
    66   25   63 1
    67   26   64 1
    68   26   65 1
    69   27   66 1
    70   27   67 1
    71   28   68 1
    72   28   69 1
    73   30   70 1
    74   33   71 1
    75   33   72 1
    76   34   73 1
    77   35   74 1
    78   35   75 1
    79   36   76 1
    80   36   77 1
    81   37   78 1
    82   37   79 1
    83   38   80 1
    84   38   81 1
    85   39   82 1
    86   39   83 1
    87   41   84 1
    88   44   85 1
    89   44   86 1
@<TRIPOS>SUBSTRUCTURE
     1 <0>         1 GROUP 0 A     ****
@<TRIPOS>MOLECULE
MiniDrugBank_256
   20    20     1     0     0
SMALL
NO_CHARGES

@<TRIPOS>ATOM
      1 N1          2.7904    0.9062    0.2586 N3        1 <0>        0.00000
      2 C1          1.9846    0.2856   -0.7642 CT        1 <0>        0.00000
      3 C2          0.9586   -0.6757   -0.1779 CT        1 <0>        0.00000
      4 N2          0.4821   -1.6194   -1.1534 N         1 <0>        0.00000
      5 O1         -0.6356   -1.4347   -2.0012 OS        1 <0>        0.00000
      6 C3         -0.7304   -2.5737   -2.7668 C         1 <0>        0.00000
      7 O2         -1.5910   -2.7573   -3.6153 O         1 <0>        0.00000
      8 N3          0.2777   -3.4233   -2.4128 N         1 <0>        0.00000
      9 C4          1.0403   -2.8556   -1.4169 C         1 <0>        0.00000
     10 O3          2.0182   -3.3539   -0.8767 O         1 <0>        0.00000
     11 C5          1.2864    1.3994   -1.5184 C         1 <0>        0.00000
     12 O4          1.0543    1.0658   -2.8152 OH        1 <0>        0.00000
     13 O5          0.9249    2.4627   -1.0312 O         1 <0>        0.00000
     14 H1          3.5916    0.4133    0.6206 H         1 <0>        0.00000
     15 H2          2.4359    1.7187    0.7388 H         1 <0>        0.00000
     16 H3          2.6894   -0.2243   -1.4301 H1        1 <0>        0.00000
     17 H4          1.3813   -1.2506    0.6536 H1        1 <0>        0.00000
     18 H5          0.0831   -0.1361    0.1978 H1        1 <0>        0.00000
     19 H6          0.4415   -4.3363   -2.8207 H         1 <0>        0.00000
     20 H7          1.3928    0.1861   -3.0875 HO        1 <0>        0.00000
@<TRIPOS>BOND
     1    1    2 1
     2    2    3 1
     3    3    4 1
     4    4    5 1
     5    5    6 1
     6    6    7 2
     7    6    8 am
     8    8    9 am
     9    4    9 am
    10    9   10 2
    11    2   11 1
    12   11   12 1
    13   11   13 2
    14    1   14 1
    15    1   15 1
    16    2   16 1
    17    3   17 1
    18    3   18 1
    19    8   19 1
    20   12   20 1
@<TRIPOS>SUBSTRUCTURE
     1 <0>         1 GROUP 0 A     ****
@<TRIPOS>MOLECULE
MiniDrugBank_257
   96    99     1     0     0
SMALL
NO_CHARGES

@<TRIPOS>ATOM
      1 C1         -4.5356  -17.4325   14.1577 CT        1 <0>        0.00000
      2 C2         -5.0815  -16.9192   12.8598 C         1 <0>        0.00000
      3 O1         -4.4880  -16.9878   11.7919 O         1 <0>        0.00000
      4 O2         -6.3158  -16.3782   13.0665 OS        1 <0>        0.00000
      5 C3         -6.9541  -15.8481   11.9074 CT        1 <0>        0.00000
      6 C4         -6.5847  -14.3754   11.7562 CT        1 <0>        0.00000
      7 C5         -7.2987  -13.6695   10.5792 CT        1 <0>        0.00000
      8 C6         -7.0007  -12.1547   10.7194 CT        1 <0>        0.00000
      9 C7         -6.6950  -14.1280    9.2349 CT        1 <0>        0.00000
     10 C8         -8.8163  -13.9578   10.6079 CM        1 <0>        0.00000
     11 C9         -9.6856  -13.0481   10.2438 C2        1 <0>        0.00000
     12 C10       -10.5564  -12.1499    9.8836 CM        1 <0>        0.00000
     13 C11       -10.2123  -10.8129    9.4027 CM        1 <0>        0.00000
     14 C12       -11.0824   -9.6745    9.8773 CT        1 <0>        0.00000
     15 C13        -9.1532  -10.6823    8.5759 CM        1 <0>        0.00000
     16 C14        -8.6375   -9.4637    7.9836 CM        1 <0>        0.00000
     17 C15        -7.5695   -9.4479    7.1689 CM        1 <0>        0.00000
     18 C16        -7.0547   -8.2307    6.5763 CM        1 <0>        0.00000
     19 C17        -6.0015   -8.0937    5.7528 CM        1 <0>        0.00000
     20 C18        -5.4957   -6.8675    5.1655 CM        1 <0>        0.00000
     21 C19        -4.4371   -6.7273    4.3374 CM        1 <0>        0.00000
     22 C20        -3.5607   -7.8584    3.8592 CT        1 <0>        0.00000
     23 C21        -4.1041   -5.3825    3.8605 CM        1 <0>        0.00000
     24 C22        -4.1368   -4.2451    4.5669 C*        1 <0>        0.00000
     25 O3         -4.5081   -4.2006    5.9011 OS        1 <0>        0.00000
     26 C23        -4.4085   -2.8740    6.2441 C         1 <0>        0.00000
     27 O4         -4.6546   -2.4250    7.3526 O         1 <0>        0.00000
     28 C24        -3.9646   -2.0777    5.0878 CW        1 <0>        0.00000
     29 C25        -3.7561   -0.6690    5.0840 CM        1 <0>        0.00000
     30 C26        -4.1030    0.1378    4.0638 CM        1 <0>        0.00000
     31 C27        -3.8864    1.5934    4.0537 CJ        1 <0>        0.00000
     32 O5         -3.9003    2.3208    5.2965 OS        1 <0>        0.00000
     33 C28        -5.0693    2.4907    4.4802 CJ        1 <0>        0.00000
     34 C29        -6.3013    1.9173    5.1235 CT        1 <0>        0.00000
     35 C30        -5.2071    3.9090    3.9812 CT        1 <0>        0.00000
     36 C31        -4.3347    4.2223    2.7704 CT        1 <0>        0.00000
     37 O6         -4.9499    3.7598    1.5742 OH        1 <0>        0.00000
     38 C32        -2.9166    3.6731    2.9199 CT        1 <0>        0.00000
     39 C33        -2.8230    2.1295    3.0746 CT        1 <0>        0.00000
     40 C34        -1.4119    1.8000    3.6175 CT        1 <0>        0.00000
     41 C35        -2.9505    1.4518    1.6897 CT        1 <0>        0.00000
     42 C36        -3.8124   -2.9470    4.0966 CC        1 <0>        0.00000
     43 C37        -9.2550  -15.3974   10.9059 CT        1 <0>        0.00000
     44 C38       -10.7577  -15.5299   11.2152 CT        1 <0>        0.00000
     45 O7         -9.0057  -16.1811    9.7331 OH        1 <0>        0.00000
     46 C39        -8.4624  -15.9970   12.0800 CT        1 <0>        0.00000
     47 H1         -3.9695  -16.6441   14.6597 HC        1 <0>        0.00000
     48 H2         -3.9030  -18.3048   13.9749 HC        1 <0>        0.00000
     49 H3         -5.3639  -17.7335   14.8057 HC        1 <0>        0.00000
     50 H4         -6.6051  -16.4295   11.0476 H1        1 <0>        0.00000
     51 H5         -6.8202  -13.8599   12.6990 HC        1 <0>        0.00000
     52 H6         -5.4945  -14.2873   11.6531 HC        1 <0>        0.00000
     53 H7         -7.4871  -11.6298    9.9090 HC        1 <0>        0.00000
     54 H8         -5.9307  -12.0068   10.6724 HC        1 <0>        0.00000
     55 H9         -7.3846  -11.8132   11.6707 HC        1 <0>        0.00000
     56 H10        -7.2089  -13.6222    8.4262 HC        1 <0>        0.00000
     57 H11        -6.8206  -15.1998    9.1387 HC        1 <0>        0.00000
     58 H12        -5.6412  -13.8766    9.2170 HC        1 <0>        0.00000
     59 H13       -11.6092  -12.4121    9.9451 HA        1 <0>        0.00000
     60 H14       -10.6877   -9.2521   10.8083 HC        1 <0>        0.00000
     61 H15       -12.1155   -9.9648   10.0792 HC        1 <0>        0.00000
     62 H16       -11.1216   -8.8807    9.1227 HC        1 <0>        0.00000
     63 H17        -8.5988  -11.5809    8.3017 HA        1 <0>        0.00000
     64 H18        -9.1394   -8.5292    8.2110 HA        1 <0>        0.00000
     65 H19        -7.0644  -10.3807    6.9382 HA        1 <0>        0.00000
     66 H20        -7.5931   -7.3191    6.8344 HA        1 <0>        0.00000
     67 H21        -5.4777   -9.0125    5.5057 HA        1 <0>        0.00000
     68 H22        -6.0460   -5.9681    5.4348 HA        1 <0>        0.00000
     69 H23        -3.9542   -8.2803    2.9274 HC        1 <0>        0.00000
     70 H24        -2.5293   -7.5643    3.6559 HC        1 <0>        0.00000
     71 H25        -3.5154   -8.6528    4.6126 HC        1 <0>        0.00000
     72 H26        -3.7967   -5.2992    2.8190 HA        1 <0>        0.00000
     73 H27        -3.2841   -0.2418    5.9697 HA        1 <0>        0.00000
     74 H28        -4.5726   -0.2856    3.1789 HA        1 <0>        0.00000
     75 H29        -7.1808    2.0583    4.4831 HC        1 <0>        0.00000
     76 H30        -6.5038    2.4025    6.0863 HC        1 <0>        0.00000
     77 H31        -6.1851    0.8417    5.3053 HC        1 <0>        0.00000
     78 H32        -6.2564    4.1015    3.7240 HC        1 <0>        0.00000
     79 H33        -4.9487    4.5901    4.8020 HC        1 <0>        0.00000
     80 H34        -4.2718    5.3229    2.6725 H1        1 <0>        0.00000
     81 H35        -4.3502    3.9873    0.8457 HO        1 <0>        0.00000
     82 H36        -2.3147    3.9866    2.0569 HC        1 <0>        0.00000
     83 H37        -2.4651    4.1558    3.7977 HC        1 <0>        0.00000
     84 H38        -1.3227    0.7274    3.7338 HC        1 <0>        0.00000
     85 H39        -1.2815    2.2891    4.5745 HC        1 <0>        0.00000
     86 H40        -0.6725    2.1597    2.9131 HC        1 <0>        0.00000
     87 H41        -2.8830    0.3794    1.8182 HC        1 <0>        0.00000
     88 H42        -2.1472    1.8016    1.0546 HC        1 <0>        0.00000
     89 H43        -3.9076    1.7154    1.2588 HC        1 <0>        0.00000
     90 H44        -3.4941   -2.7162    3.0913 HA        1 <0>        0.00000
     91 H45       -10.9903  -16.5704   11.4142 HC        1 <0>        0.00000
     92 H46       -11.3294  -15.1836   10.3611 HC        1 <0>        0.00000
     93 H47       -10.9971  -14.9279   12.0850 HC        1 <0>        0.00000
     94 H48        -9.2897  -17.0815    9.9458 HO        1 <0>        0.00000
     95 H49        -8.7662  -15.5288   13.0267 HC        1 <0>        0.00000
     96 H50        -8.6914  -17.0658   12.1885 HC        1 <0>        0.00000
@<TRIPOS>BOND
     1    1    2 1
     2    2    3 2
     3    2    4 1
     4    4    5 1
     5    5    6 1
     6    6    7 1
     7    7    8 1
     8    7    9 1
     9    7   10 1
    10   10   11 2
    11   11   12 2
    12   12   13 1
    13   13   14 1
    14   13   15 2
    15   15   16 1
    16   16   17 2
    17   17   18 1
    18   18   19 2
    19   19   20 1
    20   20   21 2
    21   21   22 1
    22   21   23 1
    23   23   24 2
    24   24   25 1
    25   25   26 1
    26   26   27 2
    27   26   28 1
    28   28   29 1
    29   29   30 2
    30   30   31 1
    31   31   32 1
    32   32   33 1
    33   31   33 1
    34   33   34 1
    35   33   35 1
    36   35   36 1
    37   36   37 1
    38   36   38 1
    39   38   39 1
    40   31   39 1
    41   39   40 1
    42   39   41 1
    43   28   42 2
    44   24   42 1
    45   10   43 1
    46   43   44 1
    47   43   45 1
    48   43   46 1
    49    5   46 1
    50    1   47 1
    51    1   48 1
    52    1   49 1
    53    5   50 1
    54    6   51 1
    55    6   52 1
    56    8   53 1
    57    8   54 1
    58    8   55 1
    59    9   56 1
    60    9   57 1
    61    9   58 1
    62   12   59 1
    63   14   60 1
    64   14   61 1
    65   14   62 1
    66   15   63 1
    67   16   64 1
    68   17   65 1
    69   18   66 1
    70   19   67 1
    71   20   68 1
    72   22   69 1
    73   22   70 1
    74   22   71 1
    75   23   72 1
    76   29   73 1
    77   30   74 1
    78   34   75 1
    79   34   76 1
    80   34   77 1
    81   35   78 1
    82   35   79 1
    83   36   80 1
    84   37   81 1
    85   38   82 1
    86   38   83 1
    87   40   84 1
    88   40   85 1
    89   40   86 1
    90   41   87 1
    91   41   88 1
    92   41   89 1
    93   42   90 1
    94   44   91 1
    95   44   92 1
    96   44   93 1
    97   45   94 1
    98   46   95 1
    99   46   96 1
@<TRIPOS>SUBSTRUCTURE
     1 <0>         1 GROUP 0 A     ****
@<TRIPOS>MOLECULE
MiniDrugBank_258
   34    36     1     0     0
SMALL
NO_CHARGES

@<TRIPOS>ATOM
      1 N1         -1.7816    1.1371    6.8892 N2        1 <0>        0.00000
      2 C1         -1.6366    1.6367    5.5769 CA        1 <0>        0.00000
      3 N2         -1.8898    2.9401    5.3402 NC        1 <0>        0.00000
      4 C2         -1.7658    3.3339    4.0499 CA        1 <0>        0.00000
      5 N3         -1.4220    2.5747    2.9868 NC        1 <0>        0.00000
      6 C3         -1.1770    1.2887    3.2878 CA        1 <0>        0.00000
      7 C4         -1.2682    0.7811    4.5724 CA        1 <0>        0.00000
      8 C5         -0.9716   -0.6789    4.5378 CT        1 <0>        0.00000
      9 I1          0.8163   -1.1604    5.5651 I         1 <0>        0.00000
     10 N4         -0.7474   -0.9994    3.0972 N3        1 <0>        0.00000
     11 N5         -0.8066    0.2465    2.4252 N2        1 <0>        0.00000
     12 C6         -0.8483    0.3732    0.9895 CT        1 <0>        0.00000
     13 O1         -1.1103   -0.8998    0.3723 OS        1 <0>        0.00000
     14 C7         -0.0644   -1.1752   -0.5730 CT        1 <0>        0.00000
     15 C8         -0.6488   -1.8687   -1.7904 CT        1 <0>        0.00000
     16 O2         -1.2545   -3.0835   -1.3791 OH        1 <0>        0.00000
     17 C9          0.5677    0.1686   -0.8885 CT        1 <0>        0.00000
     18 O3          1.9089    0.0369   -1.3188 OH        1 <0>        0.00000
     19 C10         0.4939    0.8539    0.4578 CT        1 <0>        0.00000
     20 O4          0.5079    2.2645    0.3258 OH        1 <0>        0.00000
     21 H1         -2.0254    1.7589    7.6488 H         1 <0>        0.00000
     22 H2         -1.5514    0.1744    7.0977 H         1 <0>        0.00000
     23 H3         -1.9681    4.3792    3.8479 H5        1 <0>        0.00000
     24 H4         -1.8290   -1.2565    4.8982 H1        1 <0>        0.00000
     25 H5          0.1963   -1.3707    2.9901 H         1 <0>        0.00000
     26 H6         -1.6619    1.0531    0.7163 H2        1 <0>        0.00000
     27 H7          0.6571   -1.8472   -0.0930 H1        1 <0>        0.00000
     28 H8          0.1383   -2.0916   -2.5147 H1        1 <0>        0.00000
     29 H9         -1.4052   -1.2363   -2.2614 H1        1 <0>        0.00000
     30 H10        -1.6179   -3.5028   -2.1769 HO        1 <0>        0.00000
     31 H11         0.0081    0.7288   -1.6462 H1        1 <0>        0.00000
     32 H12         1.9001   -0.5124   -2.1218 HO        1 <0>        0.00000
     33 H13         1.3345    0.5609    1.0988 H1        1 <0>        0.00000
     34 H14         1.3407    2.5009   -0.1168 HO        1 <0>        0.00000
@<TRIPOS>BOND
     1    1    2 1
     2    2    3 ar
     3    3    4 ar
     4    4    5 ar
     5    5    6 ar
     6    6    7 ar
     7    2    7 ar
     8    7    8 1
     9    8    9 1
    10    8   10 1
    11   10   11 1
    12    6   11 1
    13   11   12 1
    14   12   13 1
    15   13   14 1
    16   14   15 1
    17   15   16 1
    18   14   17 1
    19   17   18 1
    20   17   19 1
    21   12   19 1
    22   19   20 1
    23    1   21 1
    24    1   22 1
    25    4   23 1
    26    8   24 1
    27   10   25 1
    28   12   26 1
    29   14   27 1
    30   15   28 1
    31   15   29 1
    32   16   30 1
    33   17   31 1
    34   18   32 1
    35   19   33 1
    36   20   34 1
@<TRIPOS>SUBSTRUCTURE
     1 <0>         1 GROUP 0 A     ****
