@<TRIPOS>MOLECULE
AlkEthOH_c1161
   19    18     1     0     0
SMALL
USER_CHARGES

@<TRIPOS>ATOM
      1 C1          4.7510    3.6140   -3.2542 CT        1 <0>       -0.09365
      2 C2          3.5394   -1.7658   -1.0787 CT        1 <0>        0.12002
      3 C3          4.7737    2.8514   -1.9417 CT        1 <0>       -0.08428
      4 C4          3.6022    1.8883   -1.8264 CT        1 <0>        0.13349
      5 C5          2.6065    0.2954   -0.3894 CT        1 <0>        0.31731
      6 O1          2.5751   -0.7579   -1.3523 OS        1 <0>       -0.44981
      7 O2          3.6773    1.2212   -0.5734 OS        1 <0>       -0.45061
      8 H1          4.7693    2.9275   -4.1067 HC        1 <0>        0.03488
      9 H2          3.8423    4.2198   -3.3257 HC        1 <0>        0.03488
     10 H3          5.6129    4.2840   -3.3335 HC        1 <0>        0.03488
     11 H4          3.4770   -2.5471   -1.8401 H1        1 <0>        0.03589
     12 H5          3.3530   -2.1907   -0.0892 H1        1 <0>        0.03589
     13 H6          4.5362   -1.3190   -1.0993 H1        1 <0>        0.03589
     14 H7          4.7549    3.5560   -1.1015 HC        1 <0>        0.05196
     15 H8          5.7157    2.2977   -1.8490 HC        1 <0>        0.05196
     16 H9          2.6490    2.4241   -1.8793 H1        1 <0>        0.03353
     17 H10         3.6334    1.1380   -2.6230 H1        1 <0>        0.03353
     18 H11         1.6496    0.8277   -0.4333 H2        1 <0>        0.06212
     19 H12         2.6909   -0.1298    0.6171 H2        1 <0>        0.06212
@<TRIPOS>BOND
     1    1    3 1
     2    2    6 1
     3    3    4 1
     4    4    7 1
     5    5    6 1
     6    5    7 1
     7    1    8 1
     8    1    9 1
     9    1   10 1
    10    2   11 1
    11    2   12 1
    12    2   13 1
    13    3   14 1
    14    3   15 1
    15    4   16 1
    16    4   17 1
    17    5   18 1
    18    5   19 1
@<TRIPOS>SUBSTRUCTURE
     1 <0>         1 GROUP 0 A     ****
