@<TRIPOS>MOLECULE
AlkEthOH_r118
   15    15     1     0     0
SMALL
USER_CHARGES

@<TRIPOS>ATOM
      1 C1         -0.4889   -0.3488   -1.2837 CT        1 <0>       -0.11003
      2 C2         -0.4364   -1.4994   -0.2985 CT        1 <0>        0.13137
      3 C3         -0.3513    0.8535   -0.3791 CT        1 <0>        0.11345
      4 C4          0.6046    0.3458    0.6876 CT        1 <0>        0.30025
      5 O1          0.3500   -1.0623    0.8180 OS        1 <0>       -0.45581
      6 O2         -1.6194    1.1396    0.1996 OH        1 <0>       -0.58877
      7 O3          1.9415    0.5717    0.2562 OH        1 <0>       -0.62658
      8 H1          0.3701   -0.4078   -1.9621 HC        1 <0>        0.07229
      9 H2         -1.4079   -0.3639   -1.8764 HC        1 <0>        0.07229
     10 H3         -1.4353   -1.7492    0.0745 H1        1 <0>        0.05724
     11 H4          0.0073   -2.4005   -0.7314 H1        1 <0>        0.05724
     12 H5          0.0029    1.7405   -0.9126 H1        1 <0>        0.07131
     13 H6          0.4509    0.8287    1.6582 H2        1 <0>        0.06726
     14 H7         -1.4960    1.9133    0.7720 HO        1 <0>        0.40735
     15 H8          2.5211    0.2368    0.9587 HO        1 <0>        0.43114
@<TRIPOS>BOND
     1    1    2 1
     2    1    3 1
     3    2    5 1
     4    3    4 1
     5    3    6 1
     6    4    5 1
     7    4    7 1
     8    1    8 1
     9    1    9 1
    10    2   10 1
    11    2   11 1
    12    3   12 1
    13    4   13 1
    14    6   14 1
    15    7   15 1
@<TRIPOS>SUBSTRUCTURE
     1 <0>         1 GROUP 0 A     ****
