@<TRIPOS>MOLECULE
AlkEthOH_r12
   18    18     1     0     0
SMALL
USER_CHARGES

@<TRIPOS>ATOM
      1 C1          0.6732   -0.4390   -0.7436 CT        1 <0>       -0.11098
      2 C2          0.6660   -1.9571   -0.6351 CT        1 <0>       -0.11751
      3 C3          0.2699   -0.0071   -2.1462 CT        1 <0>        0.13893
      4 C4          1.4748   -2.5870   -1.7665 CT        1 <0>        0.11892
      5 C5          1.0536   -2.0225   -3.1247 CT        1 <0>        0.34658
      6 O1          1.1312   -0.5970   -3.1181 OS        1 <0>       -0.45964
      7 O2          1.2739   -3.9968   -1.7632 OH        1 <0>       -0.58563
      8 O3          1.9372   -2.5500   -4.1132 OH        1 <0>       -0.58545
      9 H1         -0.0389   -0.0250   -0.0204 HC        1 <0>        0.05546
     10 H2          1.6636   -0.0448   -0.4957 HC        1 <0>        0.05546
     11 H3          1.0972   -2.2509    0.3296 HC        1 <0>        0.05199
     12 H4         -0.3696   -2.3154   -0.6586 HC        1 <0>        0.05199
     13 H5         -0.7481   -0.3439   -2.3578 H1        1 <0>        0.05025
     14 H6          0.2858    1.0820   -2.2491 H1        1 <0>        0.05025
     15 H7          2.5429   -2.3975   -1.5896 H1        1 <0>        0.06304
     16 H8          0.0514   -2.3023   -3.3624 H2        1 <0>        0.05030
     17 H9          1.5781   -4.3150   -0.8998 HO        1 <0>        0.40312
     18 H10         1.6528   -2.1802   -4.9634 HO        1 <0>        0.42292
@<TRIPOS>BOND
     1    1    2 1
     2    1    3 1
     3    2    4 1
     4    3    6 1
     5    4    5 1
     6    4    7 1
     7    5    6 1
     8    5    8 1
     9    1    9 1
    10    1   10 1
    11    2   11 1
    12    2   12 1
    13    3   13 1
    14    3   14 1
    15    4   15 1
    16    5   16 1
    17    7   17 1
    18    8   18 1
@<TRIPOS>SUBSTRUCTURE
     1 <0>         1 GROUP 0 A     ****
