@<TRIPOS>MOLECULE
AlkEthOH_r0
   12    12     1     0     0
SMALL
USER_CHARGES

@<TRIPOS>ATOM
      1 C1          0.1466   -0.6972   -1.2190 CT        1 <0>        0.12422
      2 C2          0.1072   -0.7754    0.3061 CT        1 <0>        0.09371
      3 C3         -0.1521    0.7339    0.2375 CT        1 <0>        0.28012
      4 O1          0.0894    0.7465   -1.1920 OS        1 <0>       -0.45191
      5 O2          1.3221   -1.1878    0.9520 OH        1 <0>       -0.57726
      6 O3         -1.4710    1.1671    0.6094 OH        1 <0>       -0.60584
      7 H1          1.0701   -1.0576   -1.6805 H1        1 <0>        0.07102
      8 H2         -0.7173   -1.1199   -1.7408 H1        1 <0>        0.07102
      9 H3         -0.7451   -1.3515    0.6836 H1        1 <0>        0.07642
     10 H4          0.6019    1.3396    0.7541 H2        1 <0>        0.07902
     11 H5          1.1323   -1.1855    1.8998 HO        1 <0>        0.41214
     12 H6         -1.4701    2.1287    0.5135 HO        1 <0>        0.42734
@<TRIPOS>BOND
     1    1    2 1
     2    1    4 1
     3    2    3 1
     4    2    5 1
     5    3    4 1
     6    3    6 1
     7    1    7 1
     8    1    8 1
     9    2    9 1
    10    3   10 1
    11    5   11 1
    12    6   12 1
@<TRIPOS>SUBSTRUCTURE
     1 <0>         1 GROUP 0 A     ****
