@<TRIPOS>MOLECULE
AlkEthOH_r51
   12    12     1     0     0
SMALL
USER_CHARGES

@<TRIPOS>ATOM
      1 C1          0.7739   -0.6328   -0.4493 CT        1 <0>       -0.09541
      2 C2          0.7841   -2.0794    0.0876 CT        1 <0>       -0.09537
      3 C3          0.3765   -1.2249   -1.8175 CT        1 <0>       -0.09537
      4 C4         -0.2080   -2.4242   -1.0427 CT        1 <0>       -0.09537
      5 H1         -0.0002   -0.0002   -0.0000 HC        1 <0>        0.04769
      6 H2          1.7307   -0.1060   -0.4177 HC        1 <0>        0.04769
      7 H3          1.7548   -2.5795   -0.0089 HC        1 <0>        0.04769
      8 H4          0.4116   -2.2126    1.1060 HC        1 <0>        0.04769
      9 H5         -0.3391   -0.6397   -2.4004 HC        1 <0>        0.04769
     10 H6          1.2316   -1.4835   -2.4524 HC        1 <0>        0.04769
     11 H7         -0.0764   -3.4034   -1.5100 HC        1 <0>        0.04769
     12 H8         -1.2597   -2.2984   -0.7614 HC        1 <0>        0.04769
@<TRIPOS>BOND
     1    1    2 1
     2    1    3 1
     3    2    4 1
     4    3    4 1
     5    1    5 1
     6    1    6 1
     7    2    7 1
     8    2    8 1
     9    3    9 1
    10    3   10 1
    11    4   11 1
    12    4   12 1
@<TRIPOS>SUBSTRUCTURE
     1 <0>         1 GROUP 0 A     ****
